/*---------------------------------------------------------------------------*\
| =========                 |                                                 |
| \\      /  F ield         | OpenFOAM: The Open Source CFD Toolbox           |
|  \\    /   O peration     | Version:  2112                                  |
|   \\  /    A nd           | Website:  www.openfoam.com                      |
|    \\/     M anipulation  |                                                 |
\*---------------------------------------------------------------------------*/
Build  : _6e1fca0e-20220610 OPENFOAM=2112 patch=220610 version=2112
Arch   : "LSB;label=32;scalar=64"
Exec   : simpleFoam -parallel
Date   : Jul 13 2022
Time   : 11:44:22
Host   : instance-20220711-1435
PID    : 56495
I/O    : uncollated
Case   : /home/ubuntu/OpenFOAM/turbModels/challenge/2DFDC/hf
nProcs : 8
Hosts  :
(
    (instance-20220711-1435 8)
)
Pstream initialized with:
    floatTransfer      : 0
    nProcsSimpleSum    : 0
    commsType          : nonBlocking
    polling iterations : 0
trapFpe: Floating point exception trapping enabled (FOAM_SIGFPE).
fileModificationChecking : Monitoring run-time modified files using timeStampMaster (fileModificationSkew 5, maxFileModificationPolls 20)
allowSystemOperations : Allowing user-supplied system call operations

// * * * * * * * * * * * * * * * * * * * * * * * * * * * * * * * * * * * * * //
Create time

Create mesh for time = 0


SIMPLE: convergence criteria
    field p	 tolerance 1e-05
    field U	 tolerance 1e-05
    field "(k|epsilon|omega|nuTilda|phit|f)"	 tolerance 1e-05

Reading field p

Reading field U

Reading/calculating face flux field phi

Selecting incompressible transport model Newtonian
Selecting turbulence model type RAS
Selecting RAS turbulence model SpalartAllmaras
Selecting patchDistMethod meshWave
RAS
{
    RASModel        SpalartAllmaras;
    turbulence      on;
    printCoeffs     on;
    sigmaNut        0.66666667;
    kappa           0.41;
    Cb1             0.1355;
    Cb2             0.622;
    Cw2             0.3;
    Cw3             2;
    Cv1             7.1;
    Cs              0.3;
}

No MRF models present

No finite volume options present

Starting time loop

wallShearStress wallShearStress:
    processing all wall patches

Time = 1

DILUPBiCGStab:  Solving for Ux, Initial residual = 1, Final residual = 1.1698808e-15, No Iterations 1
DILUPBiCGStab:  Solving for Uz, Initial residual = 0.99999954, Final residual = 1.180241e-15, No Iterations 1
GAMG:  Solving for p, Initial residual = 1, Final residual = 0.089686608, No Iterations 22
time step continuity errors : sum local = 1.827993e-10, global = -1.7943122e-12, cumulative = -1.7943122e-12
DILUPBiCGStab:  Solving for nuTilda, Initial residual = 1, Final residual = 2.9018566e-09, No Iterations 2
ExecutionTime = 0.16 s  ClockTime = 0 s

Time = 2

DILUPBiCGStab:  Solving for Ux, Initial residual = 0.18435702, Final residual = 7.1841935e-09, No Iterations 1
DILUPBiCGStab:  Solving for Uz, Initial residual = 0.35811264, Final residual = 4.660635e-09, No Iterations 9
GAMG:  Solving for p, Initial residual = 0.078438999, Final residual = 0.0045647761, No Iterations 6
time step continuity errors : sum local = 3.1609515e-09, global = 1.7947459e-11, cumulative = 1.6153147e-11
DILUPBiCGStab:  Solving for nuTilda, Initial residual = 0.18440577, Final residual = 2.9768135e-09, No Iterations 2
ExecutionTime = 0.18 s  ClockTime = 1 s

Time = 3

DILUPBiCGStab:  Solving for Ux, Initial residual = 0.062048388, Final residual = 4.6459218e-09, No Iterations 1
DILUPBiCGStab:  Solving for Uz, Initial residual = 0.20614487, Final residual = 1.4148867e-09, No Iterations 9
GAMG:  Solving for p, Initial residual = 0.073478379, Final residual = 0.0048121528, No Iterations 6
time step continuity errors : sum local = 4.0804914e-09, global = 3.8395233e-11, cumulative = 5.454838e-11
DILUPBiCGStab:  Solving for nuTilda, Initial residual = 0.093562312, Final residual = 4.4839379e-09, No Iterations 2
ExecutionTime = 0.21 s  ClockTime = 1 s

Time = 4

DILUPBiCGStab:  Solving for Ux, Initial residual = 0.03600457, Final residual = 3.5500829e-09, No Iterations 1
DILUPBiCGStab:  Solving for Uz, Initial residual = 0.14451773, Final residual = 5.5598937e-09, No Iterations 8
GAMG:  Solving for p, Initial residual = 0.069251147, Final residual = 0.0039484362, No Iterations 8
time step continuity errors : sum local = 3.4844711e-09, global = 1.5063234e-11, cumulative = 6.9611614e-11
DILUPBiCGStab:  Solving for nuTilda, Initial residual = 0.071506605, Final residual = 5.7147763e-09, No Iterations 2
ExecutionTime = 0.23 s  ClockTime = 1 s

Time = 5

DILUPBiCGStab:  Solving for Ux, Initial residual = 0.02632078, Final residual = 3.0135618e-09, No Iterations 1
DILUPBiCGStab:  Solving for Uz, Initial residual = 0.11748334, Final residual = 4.8726321e-09, No Iterations 8
GAMG:  Solving for p, Initial residual = 0.067918002, Final residual = 0.0030461631, No Iterations 7
time step continuity errors : sum local = 2.6588533e-09, global = 5.5559362e-11, cumulative = 1.2517098e-10
DILUPBiCGStab:  Solving for nuTilda, Initial residual = 0.062145858, Final residual = 6.587875e-09, No Iterations 2
ExecutionTime = 0.26 s  ClockTime = 1 s

Time = 6

DILUPBiCGStab:  Solving for Ux, Initial residual = 0.021141084, Final residual = 2.7512216e-09, No Iterations 1
DILUPBiCGStab:  Solving for Uz, Initial residual = 0.10600299, Final residual = 2.9550255e-09, No Iterations 8
GAMG:  Solving for p, Initial residual = 0.064907989, Final residual = 0.0052365885, No Iterations 4
time step continuity errors : sum local = 4.6926783e-09, global = 4.9847259e-12, cumulative = 1.301557e-10
DILUPBiCGStab:  Solving for nuTilda, Initial residual = 0.053048731, Final residual = 6.731268e-09, No Iterations 2
ExecutionTime = 0.27 s  ClockTime = 1 s

Time = 7

DILUPBiCGStab:  Solving for Ux, Initial residual = 0.017812026, Final residual = 2.6349188e-09, No Iterations 1
DILUPBiCGStab:  Solving for Uz, Initial residual = 0.099017981, Final residual = 8.0952974e-09, No Iterations 7
GAMG:  Solving for p, Initial residual = 0.060467331, Final residual = 0.0053490764, No Iterations 2
time step continuity errors : sum local = 5.0296382e-09, global = 8.5559733e-11, cumulative = 2.1571544e-10
DILUPBiCGStab:  Solving for nuTilda, Initial residual = 0.046285529, Final residual = 6.8255016e-09, No Iterations 2
ExecutionTime = 0.28 s  ClockTime = 1 s

Time = 8

DILUPBiCGStab:  Solving for Ux, Initial residual = 0.015451093, Final residual = 2.5898296e-09, No Iterations 1
DILUPBiCGStab:  Solving for Uz, Initial residual = 0.093594399, Final residual = 7.9709762e-09, No Iterations 7
GAMG:  Solving for p, Initial residual = 0.055583068, Final residual = 0.0032182176, No Iterations 7
time step continuity errors : sum local = 3.2386432e-09, global = -2.508881e-11, cumulative = 1.9062663e-10
DILUPBiCGStab:  Solving for nuTilda, Initial residual = 0.040905994, Final residual = 6.8376242e-09, No Iterations 2
ExecutionTime = 0.31 s  ClockTime = 1 s

Time = 9

DILUPBiCGStab:  Solving for Ux, Initial residual = 0.013672646, Final residual = 2.5334672e-09, No Iterations 1
DILUPBiCGStab:  Solving for Uz, Initial residual = 0.089230234, Final residual = 5.9790631e-09, No Iterations 7
GAMG:  Solving for p, Initial residual = 0.053340167, Final residual = 0.0034615795, No Iterations 2
time step continuity errors : sum local = 3.5366451e-09, global = -4.5027009e-11, cumulative = 1.4559962e-10
DILUPBiCGStab:  Solving for nuTilda, Initial residual = 0.036557989, Final residual = 6.8349838e-09, No Iterations 2
ExecutionTime = 0.32 s  ClockTime = 1 s

Time = 10

DILUPBiCGStab:  Solving for Ux, Initial residual = 0.012276723, Final residual = 2.5529091e-09, No Iterations 1
DILUPBiCGStab:  Solving for Uz, Initial residual = 0.085290854, Final residual = 3.0922692e-09, No Iterations 8
GAMG:  Solving for p, Initial residual = 0.049869999, Final residual = 0.0018244474, No Iterations 6
time step continuity errors : sum local = 1.9687683e-09, global = -1.7757019e-11, cumulative = 1.278426e-10
DILUPBiCGStab:  Solving for nuTilda, Initial residual = 0.032935651, Final residual = 6.8112808e-09, No Iterations 2
ExecutionTime = 0.35 s  ClockTime = 1 s

Time = 11

DILUPBiCGStab:  Solving for Ux, Initial residual = 0.011147586, Final residual = 2.5926717e-09, No Iterations 1
DILUPBiCGStab:  Solving for Uz, Initial residual = 0.081888818, Final residual = 9.2635073e-09, No Iterations 7
GAMG:  Solving for p, Initial residual = 0.045871823, Final residual = 0.0039606568, No Iterations 3
time step continuity errors : sum local = 4.6219608e-09, global = 2.3817635e-11, cumulative = 1.5166023e-10
DILUPBiCGStab:  Solving for nuTilda, Initial residual = 0.029864042, Final residual = 6.7756726e-09, No Iterations 2
ExecutionTime = 0.36 s  ClockTime = 1 s

Time = 12

DILUPBiCGStab:  Solving for Ux, Initial residual = 0.010212896, Final residual = 2.6369456e-09, No Iterations 1
DILUPBiCGStab:  Solving for Uz, Initial residual = 0.079106696, Final residual = 9.5055003e-09, No Iterations 7
GAMG:  Solving for p, Initial residual = 0.043271718, Final residual = 0.0041271956, No Iterations 4
time step continuity errors : sum local = 5.0906835e-09, global = 5.8343674e-12, cumulative = 1.574946e-10
DILUPBiCGStab:  Solving for nuTilda, Initial residual = 0.027196362, Final residual = 6.733513e-09, No Iterations 2
ExecutionTime = 0.38 s  ClockTime = 1 s

Time = 13

DILUPBiCGStab:  Solving for Ux, Initial residual = 0.0094245979, Final residual = 2.6894508e-09, No Iterations 1
DILUPBiCGStab:  Solving for Uz, Initial residual = 0.076492825, Final residual = 2.3916626e-09, No Iterations 8
GAMG:  Solving for p, Initial residual = 0.040457467, Final residual = 0.0034203538, No Iterations 2
time step continuity errors : sum local = 4.4779785e-09, global = -2.1045712e-12, cumulative = 1.5539003e-10
DILUPBiCGStab:  Solving for nuTilda, Initial residual = 0.024834879, Final residual = 6.6870594e-09, No Iterations 2
ExecutionTime = 0.39 s  ClockTime = 1 s

Time = 14

DILUPBiCGStab:  Solving for Ux, Initial residual = 0.0087499992, Final residual = 2.7381288e-09, No Iterations 1
DILUPBiCGStab:  Solving for Uz, Initial residual = 0.07430047, Final residual = 7.6584416e-09, No Iterations 7
GAMG:  Solving for p, Initial residual = 0.03838113, Final residual = 0.0022297001, No Iterations 5
time step continuity errors : sum local = 3.0420391e-09, global = -8.5001105e-12, cumulative = 1.4688992e-10
DILUPBiCGStab:  Solving for nuTilda, Initial residual = 0.022704816, Final residual = 6.6380622e-09, No Iterations 2
ExecutionTime = 0.42 s  ClockTime = 1 s

Time = 15

DILUPBiCGStab:  Solving for Ux, Initial residual = 0.0081654875, Final residual = 2.8027751e-09, No Iterations 1
DILUPBiCGStab:  Solving for Uz, Initial residual = 0.072322344, Final residual = 4.2322599e-10, No Iterations 9
GAMG:  Solving for p, Initial residual = 0.03629777, Final residual = 0.0015201215, No Iterations 2
time step continuity errors : sum local = 2.1839238e-09, global = -2.7596398e-12, cumulative = 1.4413028e-10
DILUPBiCGStab:  Solving for nuTilda, Initial residual = 0.020745329, Final residual = 6.5879205e-09, No Iterations 2
ExecutionTime = 0.43 s  ClockTime = 1 s

Time = 16

DILUPBiCGStab:  Solving for Ux, Initial residual = 0.007653672, Final residual = 2.8548364e-09, No Iterations 1
DILUPBiCGStab:  Solving for Uz, Initial residual = 0.070476339, Final residual = 7.8539692e-09, No Iterations 7
GAMG:  Solving for p, Initial residual = 0.034747271, Final residual = 0.0024883862, No Iterations 2
time step continuity errors : sum local = 3.7044535e-09, global = -3.0081054e-11, cumulative = 1.1404922e-10
DILUPBiCGStab:  Solving for nuTilda, Initial residual = 0.01890696, Final residual = 6.5376568e-09, No Iterations 2
ExecutionTime = 0.44 s  ClockTime = 1 s

Time = 17

DILUPBiCGStab:  Solving for Ux, Initial residual = 0.0072011198, Final residual = 2.9098089e-09, No Iterations 1
DILUPBiCGStab:  Solving for Uz, Initial residual = 0.068820571, Final residual = 7.5746326e-09, No Iterations 7
GAMG:  Solving for p, Initial residual = 0.033332044, Final residual = 0.0027096912, No Iterations 4
time step continuity errors : sum local = 4.1789549e-09, global = -3.5251996e-12, cumulative = 1.1052403e-10
DILUPBiCGStab:  Solving for nuTilda, Initial residual = 0.01716672, Final residual = 6.4880326e-09, No Iterations 2
ExecutionTime = 0.46 s  ClockTime = 1 s

Time = 18

DILUPBiCGStab:  Solving for Ux, Initial residual = 0.0067978497, Final residual = 2.982482e-09, No Iterations 1
DILUPBiCGStab:  Solving for Uz, Initial residual = 0.067504898, Final residual = 6.5464081e-09, No Iterations 7
GAMG:  Solving for p, Initial residual = 0.031533594, Final residual = 0.0018976322, No Iterations 2
time step continuity errors : sum local = 3.0751041e-09, global = -3.9124618e-11, cumulative = 7.1399407e-11
DILUPBiCGStab:  Solving for nuTilda, Initial residual = 0.015521661, Final residual = 6.439336e-09, No Iterations 2
ExecutionTime = 0.47 s  ClockTime = 1 s

Time = 19

DILUPBiCGStab:  Solving for Ux, Initial residual = 0.0064363072, Final residual = 3.0477069e-09, No Iterations 1
DILUPBiCGStab:  Solving for Uz, Initial residual = 0.066221252, Final residual = 5.7589694e-09, No Iterations 7
GAMG:  Solving for p, Initial residual = 0.030306187, Final residual = 0.0023970737, No Iterations 2
time step continuity errors : sum local = 4.0289777e-09, global = -8.8857318e-11, cumulative = -1.745791e-11
DILUPBiCGStab:  Solving for nuTilda, Initial residual = 0.013992586, Final residual = 6.3917187e-09, No Iterations 2
ExecutionTime = 0.49 s  ClockTime = 1 s

Time = 20

DILUPBiCGStab:  Solving for Ux, Initial residual = 0.0061101742, Final residual = 3.1166405e-09, No Iterations 1
DILUPBiCGStab:  Solving for Uz, Initial residual = 0.065040388, Final residual = 4.8794125e-09, No Iterations 7
GAMG:  Solving for p, Initial residual = 0.029174834, Final residual = 0.0027608206, No Iterations 4
time step continuity errors : sum local = 4.8164574e-09, global = -2.4121499e-11, cumulative = -4.157941e-11
DILUPBiCGStab:  Solving for nuTilda, Initial residual = 0.012604563, Final residual = 6.3454388e-09, No Iterations 2
ExecutionTime = 0.51 s  ClockTime = 1 s

Time = 21

DILUPBiCGStab:  Solving for Ux, Initial residual = 0.0058141758, Final residual = 3.1998599e-09, No Iterations 1
DILUPBiCGStab:  Solving for Uz, Initial residual = 0.063890862, Final residual = 3.8550983e-09, No Iterations 7
GAMG:  Solving for p, Initial residual = 0.027917461, Final residual = 0.0021226806, No Iterations 2
time step continuity errors : sum local = 3.8868111e-09, global = -6.6070539e-11, cumulative = -1.0764995e-10
DILUPBiCGStab:  Solving for nuTilda, Initial residual = 0.011368898, Final residual = 6.3008335e-09, No Iterations 2
ExecutionTime = 0.52 s  ClockTime = 1 s

Time = 22

DILUPBiCGStab:  Solving for Ux, Initial residual = 0.0055447226, Final residual = 3.2770975e-09, No Iterations 1
DILUPBiCGStab:  Solving for Uz, Initial residual = 0.062773357, Final residual = 9.1451738e-09, No Iterations 7
GAMG:  Solving for p, Initial residual = 0.027108519, Final residual = 0.0026830928, No Iterations 4
time step continuity errors : sum local = 5.0929868e-09, global = -2.3647234e-11, cumulative = -1.3129718e-10
DILUPBiCGStab:  Solving for nuTilda, Initial residual = 0.010281045, Final residual = 6.2579213e-09, No Iterations 2
ExecutionTime = 0.54 s  ClockTime = 1 s

Time = 23

DILUPBiCGStab:  Solving for Ux, Initial residual = 0.0052983034, Final residual = 3.3687305e-09, No Iterations 1
DILUPBiCGStab:  Solving for Uz, Initial residual = 0.061787401, Final residual = 7.4243915e-09, No Iterations 7
GAMG:  Solving for p, Initial residual = 0.026009235, Final residual = 0.0021270158, No Iterations 2
time step continuity errors : sum local = 4.2371991e-09, global = -6.4558506e-11, cumulative = -1.9585569e-10
DILUPBiCGStab:  Solving for nuTilda, Initial residual = 0.0093272842, Final residual = 6.2167801e-09, No Iterations 2
ExecutionTime = 0.56 s  ClockTime = 1 s

Time = 24

DILUPBiCGStab:  Solving for Ux, Initial residual = 0.0050719557, Final residual = 3.454943e-09, No Iterations 1
DILUPBiCGStab:  Solving for Uz, Initial residual = 0.060817507, Final residual = 6.6778929e-09, No Iterations 7
GAMG:  Solving for p, Initial residual = 0.025259368, Final residual = 0.0023389451, No Iterations 5
time step continuity errors : sum local = 4.8269919e-09, global = 3.7815066e-11, cumulative = -1.5804062e-10
DILUPBiCGStab:  Solving for nuTilda, Initial residual = 0.0084902006, Final residual = 6.1772359e-09, No Iterations 2
ExecutionTime = 0.58 s  ClockTime = 1 s

Time = 25

DILUPBiCGStab:  Solving for Ux, Initial residual = 0.0048636248, Final residual = 3.5583005e-09, No Iterations 1
DILUPBiCGStab:  Solving for Uz, Initial residual = 0.060118904, Final residual = 6.5846553e-09, No Iterations 7
GAMG:  Solving for p, Initial residual = 0.024309801, Final residual = 0.0021727949, No Iterations 2
time step continuity errors : sum local = 4.7091095e-09, global = 1.9465512e-11, cumulative = -1.3857511e-10
DILUPBiCGStab:  Solving for nuTilda, Initial residual = 0.0077531031, Final residual = 6.1393306e-09, No Iterations 2
ExecutionTime = 0.59 s  ClockTime = 1 s

Time = 26

DILUPBiCGStab:  Solving for Ux, Initial residual = 0.0046709859, Final residual = 3.6509587e-09, No Iterations 1
DILUPBiCGStab:  Solving for Uz, Initial residual = 0.05949381, Final residual = 6.9489845e-09, No Iterations 7
GAMG:  Solving for p, Initial residual = 0.023608552, Final residual = 0.0017010893, No Iterations 4
time step continuity errors : sum local = 3.8228428e-09, global = 1.2011029e-11, cumulative = -1.2656408e-10
DILUPBiCGStab:  Solving for nuTilda, Initial residual = 0.0071004704, Final residual = 6.102672e-09, No Iterations 2
ExecutionTime = 0.61 s  ClockTime = 1 s

Time = 27

DILUPBiCGStab:  Solving for Ux, Initial residual = 0.0044924894, Final residual = 3.7549994e-09, No Iterations 1
DILUPBiCGStab:  Solving for Uz, Initial residual = 0.05884294, Final residual = 6.9927141e-09, No Iterations 7
GAMG:  Solving for p, Initial residual = 0.022858394, Final residual = 0.0018714269, No Iterations 2
time step continuity errors : sum local = 4.3903793e-09, global = -5.8282336e-11, cumulative = -1.8484642e-10
DILUPBiCGStab:  Solving for nuTilda, Initial residual = 0.0065185813, Final residual = 6.0670579e-09, No Iterations 2
ExecutionTime = 0.62 s  ClockTime = 1 s

Time = 28

DILUPBiCGStab:  Solving for Ux, Initial residual = 0.004326641, Final residual = 3.8543028e-09, No Iterations 1
DILUPBiCGStab:  Solving for Uz, Initial residual = 0.058238279, Final residual = 7.1860838e-09, No Iterations 7
GAMG:  Solving for p, Initial residual = 0.022276572, Final residual = 0.0014306278, No Iterations 5
time step continuity errors : sum local = 3.4715761e-09, global = -3.6889477e-11, cumulative = -2.2173589e-10
DILUPBiCGStab:  Solving for nuTilda, Initial residual = 0.0059975725, Final residual = 6.0321522e-09, No Iterations 2
ExecutionTime = 0.64 s  ClockTime = 1 s

Time = 29

DILUPBiCGStab:  Solving for Ux, Initial residual = 0.0041719959, Final residual = 3.9701968e-09, No Iterations 1
DILUPBiCGStab:  Solving for Uz, Initial residual = 0.057673146, Final residual = 7.2549593e-09, No Iterations 7
GAMG:  Solving for p, Initial residual = 0.021602498, Final residual = 0.0015630759, No Iterations 4
time step continuity errors : sum local = 3.9647059e-09, global = -3.7941413e-12, cumulative = -2.2553003e-10
DILUPBiCGStab:  Solving for nuTilda, Initial residual = 0.0055292348, Final residual = 5.9976899e-09, No Iterations 2
ExecutionTime = 0.66 s  ClockTime = 1 s

Time = 30

DILUPBiCGStab:  Solving for Ux, Initial residual = 0.0040276422, Final residual = 4.0813773e-09, No Iterations 1
DILUPBiCGStab:  Solving for Uz, Initial residual = 0.057168906, Final residual = 7.4635251e-09, No Iterations 7
GAMG:  Solving for p, Initial residual = 0.021000881, Final residual = 0.0018908965, No Iterations 2
time step continuity errors : sum local = 4.9970812e-09, global = -7.0940658e-11, cumulative = -2.9647069e-10
DILUPBiCGStab:  Solving for nuTilda, Initial residual = 0.0051048026, Final residual = 5.9634451e-09, No Iterations 2
ExecutionTime = 0.67 s  ClockTime = 1 s

Time = 31

DILUPBiCGStab:  Solving for Ux, Initial residual = 0.0038924052, Final residual = 4.1908346e-09, No Iterations 1
DILUPBiCGStab:  Solving for Uz, Initial residual = 0.056722931, Final residual = 7.9457725e-09, No Iterations 7
GAMG:  Solving for p, Initial residual = 0.020539764, Final residual = 0.0014632107, No Iterations 5
time step continuity errors : sum local = 3.9976309e-09, global = -4.4088165e-11, cumulative = -3.4055886e-10
DILUPBiCGStab:  Solving for nuTilda, Initial residual = 0.0047181008, Final residual = 5.9294453e-09, No Iterations 2
ExecutionTime = 0.69 s  ClockTime = 1 s

Time = 32

DILUPBiCGStab:  Solving for Ux, Initial residual = 0.0037655839, Final residual = 4.3176035e-09, No Iterations 1
DILUPBiCGStab:  Solving for Uz, Initial residual = 0.05629899, Final residual = 8.6174692e-09, No Iterations 7
GAMG:  Solving for p, Initial residual = 0.020001784, Final residual = 0.0016678655, No Iterations 4
time step continuity errors : sum local = 4.7566901e-09, global = -7.8705782e-12, cumulative = -3.4842944e-10
DILUPBiCGStab:  Solving for nuTilda, Initial residual = 0.0043656899, Final residual = 5.8952779e-09, No Iterations 2
ExecutionTime = 0.71 s  ClockTime = 1 s

Time = 33

DILUPBiCGStab:  Solving for Ux, Initial residual = 0.0036462901, Final residual = 4.4396401e-09, No Iterations 1
DILUPBiCGStab:  Solving for Uz, Initial residual = 0.055881076, Final residual = 9.3124677e-09, No Iterations 7
GAMG:  Solving for p, Initial residual = 0.019501051, Final residual = 0.0019406866, No Iterations 2
time step continuity errors : sum local = 5.7624745e-09, global = -7.8954506e-11, cumulative = -4.2738394e-10
DILUPBiCGStab:  Solving for nuTilda, Initial residual = 0.0040418438, Final residual = 5.8609245e-09, No Iterations 2
ExecutionTime = 0.72 s  ClockTime = 1 s

Time = 34

DILUPBiCGStab:  Solving for Ux, Initial residual = 0.003533945, Final residual = 4.5592351e-09, No Iterations 1
DILUPBiCGStab:  Solving for Uz, Initial residual = 0.055533473, Final residual = 4.2488958e-09, No Iterations 7
GAMG:  Solving for p, Initial residual = 0.019127105, Final residual = 0.0014365211, No Iterations 5
time step continuity errors : sum local = 4.4063648e-09, global = -4.6042175e-11, cumulative = -4.7342612e-10
DILUPBiCGStab:  Solving for nuTilda, Initial residual = 0.0037429459, Final residual = 5.8262728e-09, No Iterations 2
ExecutionTime = 0.74 s  ClockTime = 1 s

Time = 35

DILUPBiCGStab:  Solving for Ux, Initial residual = 0.0034279224, Final residual = 4.6977161e-09, No Iterations 1
DILUPBiCGStab:  Solving for Uz, Initial residual = 0.055196647, Final residual = 4.5658761e-09, No Iterations 7
GAMG:  Solving for p, Initial residual = 0.018674787, Final residual = 0.00157989, No Iterations 4
time step continuity errors : sum local = 5.0532588e-09, global = -1.050626e-11, cumulative = -4.8393238e-10
DILUPBiCGStab:  Solving for nuTilda, Initial residual = 0.0034752867, Final residual = 5.7912999e-09, No Iterations 2
ExecutionTime = 0.75 s  ClockTime = 1 s

Time = 36

DILUPBiCGStab:  Solving for Ux, Initial residual = 0.0033276934, Final residual = 4.8299655e-09, No Iterations 1
DILUPBiCGStab:  Solving for Uz, Initial residual = 0.054876193, Final residual = 4.6138088e-09, No Iterations 7
GAMG:  Solving for p, Initial residual = 0.018267222, Final residual = 0.0016905138, No Iterations 3
time step continuity errors : sum local = 5.6220833e-09, global = 6.6239116e-11, cumulative = -4.1769326e-10
DILUPBiCGStab:  Solving for nuTilda, Initial residual = 0.0032826987, Final residual = 5.7567997e-09, No Iterations 2
ExecutionTime = 0.77 s  ClockTime = 1 s

Time = 37

DILUPBiCGStab:  Solving for Ux, Initial residual = 0.0032328211, Final residual = 4.9632925e-09, No Iterations 1
DILUPBiCGStab:  Solving for Uz, Initial residual = 0.054666243, Final residual = 4.4084717e-09, No Iterations 7
GAMG:  Solving for p, Initial residual = 0.017860553, Final residual = 0.001326147, No Iterations 4
time step continuity errors : sum local = 4.5609985e-09, global = 2.672888e-11, cumulative = -3.9096438e-10
DILUPBiCGStab:  Solving for nuTilda, Initial residual = 0.0031356685, Final residual = 5.7221859e-09, No Iterations 2
ExecutionTime = 0.79 s  ClockTime = 1 s

Time = 38

DILUPBiCGStab:  Solving for Ux, Initial residual = 0.0031428401, Final residual = 5.1096395e-09, No Iterations 1
DILUPBiCGStab:  Solving for Uz, Initial residual = 0.054427424, Final residual = 4.300598e-09, No Iterations 7
GAMG:  Solving for p, Initial residual = 0.01750305, Final residual = 0.001662221, No Iterations 3
time step continuity errors : sum local = 5.9432081e-09, global = 6.847509e-11, cumulative = -3.2248929e-10
DILUPBiCGStab:  Solving for nuTilda, Initial residual = 0.0030197288, Final residual = 5.6873217e-09, No Iterations 2
ExecutionTime = 0.8 s  ClockTime = 1 s

Time = 39

DILUPBiCGStab:  Solving for Ux, Initial residual = 0.0030574309, Final residual = 5.2480107e-09, No Iterations 1
DILUPBiCGStab:  Solving for Uz, Initial residual = 0.054287831, Final residual = 4.3883599e-09, No Iterations 7
GAMG:  Solving for p, Initial residual = 0.017177379, Final residual = 0.0012498655, No Iterations 4
time step continuity errors : sum local = 4.621529e-09, global = 3.168376e-11, cumulative = -2.9080553e-10
DILUPBiCGStab:  Solving for nuTilda, Initial residual = 0.0029290095, Final residual = 5.6520923e-09, No Iterations 2
ExecutionTime = 0.82 s  ClockTime = 1 s

Time = 40

DILUPBiCGStab:  Solving for Ux, Initial residual = 0.0029761996, Final residual = 5.403685e-09, No Iterations 1
DILUPBiCGStab:  Solving for Uz, Initial residual = 0.054104199, Final residual = 4.7332019e-09, No Iterations 7
GAMG:  Solving for p, Initial residual = 0.016879652, Final residual = 0.0012060782, No Iterations 4
time step continuity errors : sum local = 4.6339368e-09, global = -4.6545181e-11, cumulative = -3.3735071e-10
DILUPBiCGStab:  Solving for nuTilda, Initial residual = 0.0028575098, Final residual = 5.6162263e-09, No Iterations 2
ExecutionTime = 0.84 s  ClockTime = 1 s

Time = 41

DILUPBiCGStab:  Solving for Ux, Initial residual = 0.0028988938, Final residual = 5.5571981e-09, No Iterations 1
DILUPBiCGStab:  Solving for Uz, Initial residual = 0.053983667, Final residual = 5.2145861e-09, No Iterations 7
GAMG:  Solving for p, Initial residual = 0.016613584, Final residual = 0.00065892583, No Iterations 4
time step continuity errors : sum local = 2.6227017e-09, global = -5.8035338e-11, cumulative = -3.9538605e-10
DILUPBiCGStab:  Solving for nuTilda, Initial residual = 0.0028034289, Final residual = 5.579545e-09, No Iterations 2
ExecutionTime = 0.85 s  ClockTime = 1 s

Time = 42

DILUPBiCGStab:  Solving for Ux, Initial residual = 0.0028251957, Final residual = 5.7129635e-09, No Iterations 1
DILUPBiCGStab:  Solving for Uz, Initial residual = 0.053890488, Final residual = 5.5322648e-09, No Iterations 7
GAMG:  Solving for p, Initial residual = 0.016363938, Final residual = 0.0011715815, No Iterations 4
time step continuity errors : sum local = 4.8218986e-09, global = 8.8100358e-12, cumulative = -3.8657601e-10
DILUPBiCGStab:  Solving for nuTilda, Initial residual = 0.0027634877, Final residual = 5.5419261e-09, No Iterations 2
ExecutionTime = 0.87 s  ClockTime = 1 s

Time = 43

DILUPBiCGStab:  Solving for Ux, Initial residual = 0.0027548854, Final residual = 5.8767861e-09, No Iterations 1
DILUPBiCGStab:  Solving for Uz, Initial residual = 0.053823198, Final residual = 5.5176633e-09, No Iterations 7
GAMG:  Solving for p, Initial residual = 0.016119558, Final residual = 0.0013914051, No Iterations 3
time step continuity errors : sum local = 5.9376907e-09, global = 6.4015509e-11, cumulative = -3.225605e-10
DILUPBiCGStab:  Solving for nuTilda, Initial residual = 0.0027354364, Final residual = 5.503266e-09, No Iterations 2
ExecutionTime = 0.88 s  ClockTime = 1 s

Time = 44

DILUPBiCGStab:  Solving for Ux, Initial residual = 0.0026877217, Final residual = 6.037145e-09, No Iterations 1
DILUPBiCGStab:  Solving for Uz, Initial residual = 0.053807909, Final residual = 5.3964264e-09, No Iterations 7
GAMG:  Solving for p, Initial residual = 0.015882721, Final residual = 0.0015436605, No Iterations 4
time step continuity errors : sum local = 6.8054025e-09, global = -6.9476081e-13, cumulative = -3.2325526e-10
DILUPBiCGStab:  Solving for nuTilda, Initial residual = 0.0027167761, Final residual = 5.4634551e-09, No Iterations 2
ExecutionTime = 0.9 s  ClockTime = 1 s

Time = 45

DILUPBiCGStab:  Solving for Ux, Initial residual = 0.0026234947, Final residual = 6.2154988e-09, No Iterations 1
DILUPBiCGStab:  Solving for Uz, Initial residual = 0.053765614, Final residual = 4.987681e-09, No Iterations 7
GAMG:  Solving for p, Initial residual = 0.015687789, Final residual = 0.0012467776, No Iterations 4
time step continuity errors : sum local = 5.7087989e-09, global = -6.5521837e-11, cumulative = -3.887771e-10
DILUPBiCGStab:  Solving for nuTilda, Initial residual = 0.0027067587, Final residual = 5.4225452e-09, No Iterations 2
ExecutionTime = 0.92 s  ClockTime = 1 s

Time = 46

DILUPBiCGStab:  Solving for Ux, Initial residual = 0.002562032, Final residual = 6.3935677e-09, No Iterations 1
DILUPBiCGStab:  Solving for Uz, Initial residual = 0.053755428, Final residual = 4.7434122e-09, No Iterations 7
GAMG:  Solving for p, Initial residual = 0.015508885, Final residual = 0.00067700437, No Iterations 4
time step continuity errors : sum local = 3.2089083e-09, global = -7.6480856e-11, cumulative = -4.6525796e-10
DILUPBiCGStab:  Solving for nuTilda, Initial residual = 0.0027050239, Final residual = 5.3804938e-09, No Iterations 2
ExecutionTime = 0.94 s  ClockTime = 1 s

Time = 47

DILUPBiCGStab:  Solving for Ux, Initial residual = 0.0025031352, Final residual = 6.5755724e-09, No Iterations 1
DILUPBiCGStab:  Solving for Uz, Initial residual = 0.053768932, Final residual = 4.5375072e-09, No Iterations 7
GAMG:  Solving for p, Initial residual = 0.015324929, Final residual = 0.0012261169, No Iterations 4
time step continuity errors : sum local = 6.0024535e-09, global = 3.4805461e-12, cumulative = -4.6177741e-10
DILUPBiCGStab:  Solving for nuTilda, Initial residual = 0.0027096307, Final residual = 5.3372682e-09, No Iterations 2
ExecutionTime = 0.96 s  ClockTime = 1 s

Time = 48

DILUPBiCGStab:  Solving for Ux, Initial residual = 0.0024466749, Final residual = 6.7653366e-09, No Iterations 1
DILUPBiCGStab:  Solving for Uz, Initial residual = 0.053810056, Final residual = 4.2979492e-09, No Iterations 7
GAMG:  Solving for p, Initial residual = 0.015146049, Final residual = 0.00093033968, No Iterations 4
time step continuity errors : sum local = 4.7181538e-09, global = 1.7907371e-11, cumulative = -4.4387004e-10
DILUPBiCGStab:  Solving for nuTilda, Initial residual = 0.0027203401, Final residual = 5.2928132e-09, No Iterations 2
ExecutionTime = 0.98 s  ClockTime = 1 s

Time = 49

DILUPBiCGStab:  Solving for Ux, Initial residual = 0.0023924789, Final residual = 6.9584599e-09, No Iterations 1
DILUPBiCGStab:  Solving for Uz, Initial residual = 0.053871903, Final residual = 9.8648508e-09, No Iterations 7
GAMG:  Solving for p, Initial residual = 0.014979858, Final residual = 0.00097774811, No Iterations 4
time step continuity errors : sum local = 5.1297576e-09, global = 1.5053628e-11, cumulative = -4.2881641e-10
DILUPBiCGStab:  Solving for nuTilda, Initial residual = 0.0027363933, Final residual = 5.2471654e-09, No Iterations 2
ExecutionTime = 0.99 s  ClockTime = 1 s

Time = 50

DILUPBiCGStab:  Solving for Ux, Initial residual = 0.0023404374, Final residual = 7.1554693e-09, No Iterations 1
DILUPBiCGStab:  Solving for Uz, Initial residual = 0.054000681, Final residual = 8.4111492e-09, No Iterations 7
GAMG:  Solving for p, Initial residual = 0.014815139, Final residual = 0.00099579718, No Iterations 4
time step continuity errors : sum local = 5.4021821e-09, global = 1.8116006e-11, cumulative = -4.1070041e-10
DILUPBiCGStab:  Solving for nuTilda, Initial residual = 0.0027576797, Final residual = 5.2002037e-09, No Iterations 2
ExecutionTime = 1.01 s  ClockTime = 1 s

Time = 51

DILUPBiCGStab:  Solving for Ux, Initial residual = 0.0022904046, Final residual = 7.3595931e-09, No Iterations 1
DILUPBiCGStab:  Solving for Uz, Initial residual = 0.054132643, Final residual = 4.2795232e-09, No Iterations 8
GAMG:  Solving for p, Initial residual = 0.0146678, Final residual = 0.00099297421, No Iterations 4
time step continuity errors : sum local = 5.5701369e-09, global = 2.2123983e-11, cumulative = -3.8857642e-10
DILUPBiCGStab:  Solving for nuTilda, Initial residual = 0.0027831162, Final residual = 5.1520274e-09, No Iterations 2
ExecutionTime = 1.03 s  ClockTime = 1 s

Time = 52

DILUPBiCGStab:  Solving for Ux, Initial residual = 0.0022422866, Final residual = 7.5694239e-09, No Iterations 1
DILUPBiCGStab:  Solving for Uz, Initial residual = 0.054272037, Final residual = 7.6024576e-09, No Iterations 7
GAMG:  Solving for p, Initial residual = 0.014532765, Final residual = 0.00098033273, No Iterations 4
time step continuity errors : sum local = 5.686081e-09, global = 2.5495099e-11, cumulative = -3.6308132e-10
DILUPBiCGStab:  Solving for nuTilda, Initial residual = 0.002811862, Final residual = 5.1025722e-09, No Iterations 2
ExecutionTime = 1.05 s  ClockTime = 1 s

Time = 53

DILUPBiCGStab:  Solving for Ux, Initial residual = 0.002195959, Final residual = 7.7851722e-09, No Iterations 1
DILUPBiCGStab:  Solving for Uz, Initial residual = 0.054425455, Final residual = 6.4744765e-09, No Iterations 7
GAMG:  Solving for p, Initial residual = 0.014407774, Final residual = 0.0009646135, No Iterations 4
time step continuity errors : sum local = 5.7845745e-09, global = 2.8368414e-11, cumulative = -3.3471291e-10
DILUPBiCGStab:  Solving for nuTilda, Initial residual = 0.0028440603, Final residual = 5.0518375e-09, No Iterations 2
ExecutionTime = 1.06 s  ClockTime = 1 s

Time = 54

DILUPBiCGStab:  Solving for Ux, Initial residual = 0.0021513295, Final residual = 8.0086417e-09, No Iterations 1
DILUPBiCGStab:  Solving for Uz, Initial residual = 0.054588764, Final residual = 5.6345726e-09, No Iterations 7
GAMG:  Solving for p, Initial residual = 0.014289125, Final residual = 0.0009489701, No Iterations 4
time step continuity errors : sum local = 5.8827174e-09, global = 3.0973209e-11, cumulative = -3.037397e-10
DILUPBiCGStab:  Solving for nuTilda, Initial residual = 0.0028792441, Final residual = 4.9998394e-09, No Iterations 2
ExecutionTime = 1.08 s  ClockTime = 1 s

Time = 55

DILUPBiCGStab:  Solving for Ux, Initial residual = 0.0021083145, Final residual = 8.2378111e-09, No Iterations 1
DILUPBiCGStab:  Solving for Uz, Initial residual = 0.054768174, Final residual = 4.6933462e-09, No Iterations 7
GAMG:  Solving for p, Initial residual = 0.014177411, Final residual = 0.00093433993, No Iterations 4
time step continuity errors : sum local = 5.9863134e-09, global = 3.3291795e-11, cumulative = -2.7044791e-10
DILUPBiCGStab:  Solving for nuTilda, Initial residual = 0.0029167161, Final residual = 4.9465367e-09, No Iterations 2
ExecutionTime = 1.1 s  ClockTime = 1 s

Time = 56

DILUPBiCGStab:  Solving for Ux, Initial residual = 0.0020668201, Final residual = 8.4727699e-09, No Iterations 1
DILUPBiCGStab:  Solving for Uz, Initial residual = 0.054957029, Final residual = 9.3037018e-09, No Iterations 7
GAMG:  Solving for p, Initial residual = 0.014072967, Final residual = 0.00092152383, No Iterations 4
time step continuity errors : sum local = 6.1009695e-09, global = 3.5290849e-11, cumulative = -2.3515706e-10
DILUPBiCGStab:  Solving for nuTilda, Initial residual = 0.002955599, Final residual = 4.8901362e-09, No Iterations 2
ExecutionTime = 1.12 s  ClockTime = 1 s

Time = 57

DILUPBiCGStab:  Solving for Ux, Initial residual = 0.0020267791, Final residual = 8.7150747e-09, No Iterations 1
DILUPBiCGStab:  Solving for Uz, Initial residual = 0.055157157, Final residual = 4.8237081e-09, No Iterations 7
GAMG:  Solving for p, Initial residual = 0.013972697, Final residual = 0.00091070115, No Iterations 4
time step continuity errors : sum local = 6.2290857e-09, global = 3.697243e-11, cumulative = -1.9818463e-10
DILUPBiCGStab:  Solving for nuTilda, Initial residual = 0.0029910951, Final residual = 4.8236203e-09, No Iterations 2
ExecutionTime = 1.14 s  ClockTime = 1 s

Time = 58

DILUPBiCGStab:  Solving for Ux, Initial residual = 0.0019881075, Final residual = 8.9645536e-09, No Iterations 1
DILUPBiCGStab:  Solving for Uz, Initial residual = 0.055366734, Final residual = 3.4929455e-09, No Iterations 8
GAMG:  Solving for p, Initial residual = 0.013875724, Final residual = 0.0009018696, No Iterations 4
time step continuity errors : sum local = 6.3719921e-09, global = 3.8370827e-11, cumulative = -1.598138e-10
DILUPBiCGStab:  Solving for nuTilda, Initial residual = 0.0030237863, Final residual = 4.7492233e-09, No Iterations 2
ExecutionTime = 1.15 s  ClockTime = 1 s

Time = 59

DILUPBiCGStab:  Solving for Ux, Initial residual = 0.0019507432, Final residual = 9.2204546e-09, No Iterations 1
DILUPBiCGStab:  Solving for Uz, Initial residual = 0.05558615, Final residual = 7.0816853e-09, No Iterations 7
GAMG:  Solving for p, Initial residual = 0.013782128, Final residual = 0.00090564318, No Iterations 4
time step continuity errors : sum local = 6.6084044e-09, global = 3.8809467e-11, cumulative = -1.2100433e-10
DILUPBiCGStab:  Solving for nuTilda, Initial residual = 0.0030552348, Final residual = 4.6697317e-09, No Iterations 2
ExecutionTime = 1.17 s  ClockTime = 2 s

Time = 60

DILUPBiCGStab:  Solving for Ux, Initial residual = 0.0019146169, Final residual = 9.4829351e-09, No Iterations 1
DILUPBiCGStab:  Solving for Uz, Initial residual = 0.055816745, Final residual = 9.9194267e-09, No Iterations 7
GAMG:  Solving for p, Initial residual = 0.013692789, Final residual = 0.00090136713, No Iterations 4
time step continuity errors : sum local = 6.7917126e-09, global = 4.0376857e-11, cumulative = -8.0627475e-11
DILUPBiCGStab:  Solving for nuTilda, Initial residual = 0.0030858524, Final residual = 4.5863388e-09, No Iterations 2
ExecutionTime = 1.19 s  ClockTime = 2 s

Time = 61

DILUPBiCGStab:  Solving for Ux, Initial residual = 0.0018796707, Final residual = 9.7539504e-09, No Iterations 1
DILUPBiCGStab:  Solving for Uz, Initial residual = 0.056057422, Final residual = 4.1412572e-09, No Iterations 7
GAMG:  Solving for p, Initial residual = 0.013606769, Final residual = 0.00088000823, No Iterations 4
time step continuity errors : sum local = 6.8459681e-09, global = 4.2104215e-11, cumulative = -3.8523261e-11
DILUPBiCGStab:  Solving for nuTilda, Initial residual = 0.0031156387, Final residual = 4.4995214e-09, No Iterations 2
ExecutionTime = 1.21 s  ClockTime = 2 s

Time = 62

DILUPBiCGStab:  Solving for Ux, Initial residual = 0.0018458544, Final residual = 2.7286018e-10, No Iterations 1
DILUPBiCGStab:  Solving for Uz, Initial residual = 0.056310656, Final residual = 4.4070671e-09, No Iterations 7
GAMG:  Solving for p, Initial residual = 0.015737182, Final residual = 0.00091760327, No Iterations 8
time step continuity errors : sum local = 7.353793e-09, global = -5.665928e-11, cumulative = -9.5182541e-11
DILUPBiCGStab:  Solving for nuTilda, Initial residual = 0.0031448937, Final residual = 4.4106962e-09, No Iterations 2
ExecutionTime = 1.24 s  ClockTime = 2 s

Time = 63

DILUPBiCGStab:  Solving for Ux, Initial residual = 0.0018131095, Final residual = 2.3419748e-10, No Iterations 1
DILUPBiCGStab:  Solving for Uz, Initial residual = 0.057013047, Final residual = 5.1961111e-09, No Iterations 7
GAMG:  Solving for p, Initial residual = 0.016336098, Final residual = 0.0013012956, No Iterations 3
time step continuity errors : sum local = 1.0261858e-08, global = 1.9263166e-10, cumulative = 9.7449115e-11
DILUPBiCGStab:  Solving for nuTilda, Initial residual = 0.0031730564, Final residual = 4.3192317e-09, No Iterations 2
ExecutionTime = 1.25 s  ClockTime = 2 s

Time = 64

DILUPBiCGStab:  Solving for Ux, Initial residual = 0.0017813891, Final residual = 2.3467386e-10, No Iterations 1
DILUPBiCGStab:  Solving for Uz, Initial residual = 0.057402003, Final residual = 4.286107e-09, No Iterations 7
GAMG:  Solving for p, Initial residual = 0.015996732, Final residual = 0.00072631094, No Iterations 3
time step continuity errors : sum local = 5.8566757e-09, global = 1.1534906e-10, cumulative = 2.1279817e-10
DILUPBiCGStab:  Solving for nuTilda, Initial residual = 0.0032006084, Final residual = 4.2261708e-09, No Iterations 2
ExecutionTime = 1.27 s  ClockTime = 2 s

Time = 65

DILUPBiCGStab:  Solving for Ux, Initial residual = 0.0017506442, Final residual = 2.3794414e-10, No Iterations 1
DILUPBiCGStab:  Solving for Uz, Initial residual = 0.057559015, Final residual = 4.3236679e-09, No Iterations 7
GAMG:  Solving for p, Initial residual = 0.015844674, Final residual = 0.0011916873, No Iterations 2
time step continuity errors : sum local = 9.8340518e-09, global = -1.3660938e-10, cumulative = 7.6188795e-11
DILUPBiCGStab:  Solving for nuTilda, Initial residual = 0.0032275786, Final residual = 4.1318865e-09, No Iterations 2
ExecutionTime = 1.28 s  ClockTime = 2 s

Time = 66

DILUPBiCGStab:  Solving for Ux, Initial residual = 0.0017208339, Final residual = 2.4007201e-10, No Iterations 1
DILUPBiCGStab:  Solving for Uz, Initial residual = 0.05776833, Final residual = 4.4018584e-09, No Iterations 7
GAMG:  Solving for p, Initial residual = 0.01568056, Final residual = 0.0011952402, No Iterations 6
time step continuity errors : sum local = 1.0101808e-08, global = -1.4396894e-10, cumulative = -6.7780143e-11
DILUPBiCGStab:  Solving for nuTilda, Initial residual = 0.0032533911, Final residual = 4.0357992e-09, No Iterations 2
ExecutionTime = 1.3 s  ClockTime = 2 s

Time = 67

DILUPBiCGStab:  Solving for Ux, Initial residual = 0.0016919203, Final residual = 2.7412125e-10, No Iterations 1
DILUPBiCGStab:  Solving for Uz, Initial residual = 0.057989144, Final residual = 4.4712819e-09, No Iterations 7
GAMG:  Solving for p, Initial residual = 0.015399154, Final residual = 0.0011089671, No Iterations 2
time step continuity errors : sum local = 9.7397091e-09, global = -9.6403305e-11, cumulative = -1.6418345e-10
DILUPBiCGStab:  Solving for nuTilda, Initial residual = 0.0032783571, Final residual = 3.93868e-09, No Iterations 2
ExecutionTime = 1.32 s  ClockTime = 2 s

Time = 68

DILUPBiCGStab:  Solving for Ux, Initial residual = 0.0016638606, Final residual = 2.7439794e-10, No Iterations 1
DILUPBiCGStab:  Solving for Uz, Initial residual = 0.058279661, Final residual = 4.5218847e-09, No Iterations 7
GAMG:  Solving for p, Initial residual = 0.015238124, Final residual = 0.0013161347, No Iterations 5
time step continuity errors : sum local = 1.1838967e-08, global = -8.4778297e-11, cumulative = -2.4896174e-10
DILUPBiCGStab:  Solving for nuTilda, Initial residual = 0.003302742, Final residual = 3.8413132e-09, No Iterations 2
ExecutionTime = 1.34 s  ClockTime = 2 s

Time = 69

DILUPBiCGStab:  Solving for Ux, Initial residual = 0.0016366156, Final residual = 3.0187037e-10, No Iterations 1
DILUPBiCGStab:  Solving for Uz, Initial residual = 0.058551993, Final residual = 4.5847192e-09, No Iterations 7
GAMG:  Solving for p, Initial residual = 0.014903528, Final residual = 0.00093718436, No Iterations 2
time step continuity errors : sum local = 8.722987e-09, global = -1.312943e-10, cumulative = -3.8025604e-10
DILUPBiCGStab:  Solving for nuTilda, Initial residual = 0.0033264242, Final residual = 3.7437352e-09, No Iterations 2
ExecutionTime = 1.35 s  ClockTime = 2 s

Time = 70

DILUPBiCGStab:  Solving for Ux, Initial residual = 0.0016101569, Final residual = 2.9972448e-10, No Iterations 1
DILUPBiCGStab:  Solving for Uz, Initial residual = 0.058807809, Final residual = 4.7099587e-09, No Iterations 7
GAMG:  Solving for p, Initial residual = 0.014782518, Final residual = 0.0013966067, No Iterations 4
time step continuity errors : sum local = 1.3319228e-08, global = 3.8528184e-12, cumulative = -3.7640322e-10
DILUPBiCGStab:  Solving for nuTilda, Initial residual = 0.0033493359, Final residual = 3.6459323e-09, No Iterations 2
ExecutionTime = 1.37 s  ClockTime = 2 s

Time = 71

DILUPBiCGStab:  Solving for Ux, Initial residual = 0.0015844513, Final residual = 3.1044355e-10, No Iterations 1
DILUPBiCGStab:  Solving for Uz, Initial residual = 0.059096289, Final residual = 4.7516937e-09, No Iterations 7
GAMG:  Solving for p, Initial residual = 0.014496132, Final residual = 0.0011357296, No Iterations 2
time step continuity errors : sum local = 1.1179352e-08, global = -2.3026997e-10, cumulative = -6.066732e-10
DILUPBiCGStab:  Solving for nuTilda, Initial residual = 0.003371545, Final residual = 3.5485951e-09, No Iterations 2
ExecutionTime = 1.38 s  ClockTime = 2 s

Time = 72

DILUPBiCGStab:  Solving for Ux, Initial residual = 0.001559467, Final residual = 3.1081567e-10, No Iterations 1
DILUPBiCGStab:  Solving for Uz, Initial residual = 0.05935585, Final residual = 4.7715696e-09, No Iterations 7
GAMG:  Solving for p, Initial residual = 0.014386518, Final residual = 0.00090103591, No Iterations 5
time step continuity errors : sum local = 9.0900219e-09, global = -7.5279818e-11, cumulative = -6.8195301e-10
DILUPBiCGStab:  Solving for nuTilda, Initial residual = 0.0033928199, Final residual = 3.4513574e-09, No Iterations 2
ExecutionTime = 1.4 s  ClockTime = 2 s

Time = 73

DILUPBiCGStab:  Solving for Ux, Initial residual = 0.0015351719, Final residual = 3.2729397e-10, No Iterations 1
DILUPBiCGStab:  Solving for Uz, Initial residual = 0.059624247, Final residual = 4.7650435e-09, No Iterations 7
GAMG:  Solving for p, Initial residual = 0.014151702, Final residual = 0.001095071, No Iterations 2
time step continuity errors : sum local = 1.1404147e-08, global = -2.9203622e-10, cumulative = -9.7398923e-10
DILUPBiCGStab:  Solving for nuTilda, Initial residual = 0.0034131145, Final residual = 3.3543813e-09, No Iterations 2
ExecutionTime = 1.41 s  ClockTime = 2 s

Time = 74

DILUPBiCGStab:  Solving for Ux, Initial residual = 0.0015115433, Final residual = 3.2865909e-10, No Iterations 1
DILUPBiCGStab:  Solving for Uz, Initial residual = 0.059890545, Final residual = 4.9573932e-09, No Iterations 7
GAMG:  Solving for p, Initial residual = 0.014065696, Final residual = 0.0013866277, No Iterations 5
time step continuity errors : sum local = 1.4807465e-08, global = 1.4325246e-10, cumulative = -8.3073677e-10
DILUPBiCGStab:  Solving for nuTilda, Initial residual = 0.0034327265, Final residual = 3.2585394e-09, No Iterations 2
ExecutionTime = 1.43 s  ClockTime = 2 s

Time = 75

DILUPBiCGStab:  Solving for Ux, Initial residual = 0.0014885555, Final residual = 3.4427409e-10, No Iterations 1
DILUPBiCGStab:  Solving for Uz, Initial residual = 0.060192689, Final residual = 5.1038412e-09, No Iterations 7
GAMG:  Solving for p, Initial residual = 0.013848167, Final residual = 0.0012162198, No Iterations 2
time step continuity errors : sum local = 1.3420569e-08, global = -2.3180661e-10, cumulative = -1.0625434e-09
DILUPBiCGStab:  Solving for nuTilda, Initial residual = 0.0034516325, Final residual = 3.1637043e-09, No Iterations 2
ExecutionTime = 1.45 s  ClockTime = 2 s

Time = 76

DILUPBiCGStab:  Solving for Ux, Initial residual = 0.0014661786, Final residual = 3.4939745e-10, No Iterations 1
DILUPBiCGStab:  Solving for Uz, Initial residual = 0.060412822, Final residual = 5.4350645e-09, No Iterations 7
GAMG:  Solving for p, Initial residual = 0.013829409, Final residual = 0.001241361, No Iterations 5
time step continuity errors : sum local = 1.4043403e-08, global = 1.431001e-10, cumulative = -9.1944327e-10
DILUPBiCGStab:  Solving for nuTilda, Initial residual = 0.0034698248, Final residual = 3.0699396e-09, No Iterations 2
ExecutionTime = 1.47 s  ClockTime = 2 s

Time = 77

DILUPBiCGStab:  Solving for Ux, Initial residual = 0.0014443931, Final residual = 3.6899407e-10, No Iterations 1
DILUPBiCGStab:  Solving for Uz, Initial residual = 0.060679308, Final residual = 5.7078571e-09, No Iterations 7
GAMG:  Solving for p, Initial residual = 0.013654708, Final residual = 0.001266439, No Iterations 2
time step continuity errors : sum local = 1.4798421e-08, global = -2.1409453e-10, cumulative = -1.1335378e-09
DILUPBiCGStab:  Solving for nuTilda, Initial residual = 0.0034873658, Final residual = 2.9780704e-09, No Iterations 2
ExecutionTime = 1.48 s  ClockTime = 2 s

Time = 78

DILUPBiCGStab:  Solving for Ux, Initial residual = 0.0014231773, Final residual = 3.7626532e-10, No Iterations 1
DILUPBiCGStab:  Solving for Uz, Initial residual = 0.06090848, Final residual = 6.2271921e-09, No Iterations 7
GAMG:  Solving for p, Initial residual = 0.013618965, Final residual = 0.0012636146, No Iterations 5
time step continuity errors : sum local = 1.5137049e-08, global = 1.3885172e-10, cumulative = -9.9468609e-10
DILUPBiCGStab:  Solving for nuTilda, Initial residual = 0.0035042405, Final residual = 2.8877938e-09, No Iterations 2
ExecutionTime = 1.5 s  ClockTime = 2 s

Time = 79

DILUPBiCGStab:  Solving for Ux, Initial residual = 0.0014025088, Final residual = 3.9971814e-10, No Iterations 1
DILUPBiCGStab:  Solving for Uz, Initial residual = 0.061156772, Final residual = 8.9266199e-09, No Iterations 7
GAMG:  Solving for p, Initial residual = 0.013459343, Final residual = 0.0011186394, No Iterations 3
time step continuity errors : sum local = 1.3844185e-08, global = -6.913635e-11, cumulative = -1.0638224e-09
DILUPBiCGStab:  Solving for nuTilda, Initial residual = 0.0035204544, Final residual = 2.7992904e-09, No Iterations 2
ExecutionTime = 1.52 s  ClockTime = 2 s

Time = 80

DILUPBiCGStab:  Solving for Ux, Initial residual = 0.0013823658, Final residual = 4.1304872e-10, No Iterations 1
DILUPBiCGStab:  Solving for Uz, Initial residual = 0.061391998, Final residual = 8.0073932e-09, No Iterations 7
GAMG:  Solving for p, Initial residual = 0.013350726, Final residual = 0.0013199006, No Iterations 3
time step continuity errors : sum local = 1.678875e-08, global = 1.9966473e-10, cumulative = -8.641577e-10
DILUPBiCGStab:  Solving for nuTilda, Initial residual = 0.0035360631, Final residual = 2.7134222e-09, No Iterations 2
ExecutionTime = 1.53 s  ClockTime = 2 s

Time = 81

DILUPBiCGStab:  Solving for Ux, Initial residual = 0.0013627321, Final residual = 4.2743189e-10, No Iterations 1
DILUPBiCGStab:  Solving for Uz, Initial residual = 0.061603554, Final residual = 7.7534141e-09, No Iterations 7
GAMG:  Solving for p, Initial residual = 0.013294809, Final residual = 0.0010496497, No Iterations 4
time step continuity errors : sum local = 1.3721412e-08, global = 7.0369838e-11, cumulative = -7.9378786e-10
DILUPBiCGStab:  Solving for nuTilda, Initial residual = 0.0035510695, Final residual = 2.6299796e-09, No Iterations 2
ExecutionTime = 1.55 s  ClockTime = 2 s

Time = 82

DILUPBiCGStab:  Solving for Ux, Initial residual = 0.0013435897, Final residual = 4.5263603e-10, No Iterations 1
DILUPBiCGStab:  Solving for Uz, Initial residual = 0.061776209, Final residual = 8.2960628e-09, No Iterations 7
GAMG:  Solving for p, Initial residual = 0.013155981, Final residual = 0.0011898392, No Iterations 3
time step continuity errors : sum local = 1.603872e-08, global = 1.4258971e-10, cumulative = -6.5119815e-10
DILUPBiCGStab:  Solving for nuTilda, Initial residual = 0.0035654896, Final residual = 2.549068e-09, No Iterations 2
ExecutionTime = 1.57 s  ClockTime = 2 s

Time = 83

DILUPBiCGStab:  Solving for Ux, Initial residual = 0.0013249173, Final residual = 4.6749251e-10, No Iterations 1
DILUPBiCGStab:  Solving for Uz, Initial residual = 0.062001465, Final residual = 3.0686208e-09, No Iterations 8
GAMG:  Solving for p, Initial residual = 0.013092789, Final residual = 0.001152841, No Iterations 4
time step continuity errors : sum local = 1.5968755e-08, global = -1.8514568e-11, cumulative = -6.6971272e-10
DILUPBiCGStab:  Solving for nuTilda, Initial residual = 0.0035793705, Final residual = 2.4715812e-09, No Iterations 2
ExecutionTime = 1.58 s  ClockTime = 2 s

Time = 84

DILUPBiCGStab:  Solving for Ux, Initial residual = 0.0013067018, Final residual = 4.9268355e-10, No Iterations 1
DILUPBiCGStab:  Solving for Uz, Initial residual = 0.062175191, Final residual = 2.6661083e-09, No Iterations 8
GAMG:  Solving for p, Initial residual = 0.012958488, Final residual = 0.0012830867, No Iterations 3
time step continuity errors : sum local = 1.8325453e-08, global = 1.5641314e-10, cumulative = -5.1329958e-10
DILUPBiCGStab:  Solving for nuTilda, Initial residual = 0.0035927262, Final residual = 2.3974622e-09, No Iterations 2
ExecutionTime = 1.6 s  ClockTime = 2 s

Time = 85

DILUPBiCGStab:  Solving for Ux, Initial residual = 0.0012889286, Final residual = 5.097683e-10, No Iterations 1
DILUPBiCGStab:  Solving for Uz, Initial residual = 0.062378743, Final residual = 3.2756846e-09, No Iterations 8
GAMG:  Solving for p, Initial residual = 0.012911509, Final residual = 0.0011323559, No Iterations 4
time step continuity errors : sum local = 1.661816e-08, global = -1.8367109e-11, cumulative = -5.3166669e-10
DILUPBiCGStab:  Solving for nuTilda, Initial residual = 0.0036055806, Final residual = 2.3270139e-09, No Iterations 2
ExecutionTime = 1.62 s  ClockTime = 2 s

Time = 86

DILUPBiCGStab:  Solving for Ux, Initial residual = 0.0012715778, Final residual = 5.3638654e-10, No Iterations 1
DILUPBiCGStab:  Solving for Uz, Initial residual = 0.062519119, Final residual = 3.3846055e-09, No Iterations 8
GAMG:  Solving for p, Initial residual = 0.012788624, Final residual = 0.0012294766, No Iterations 3
time step continuity errors : sum local = 1.8594803e-08, global = 1.4011843e-10, cumulative = -3.9154825e-10
DILUPBiCGStab:  Solving for nuTilda, Initial residual = 0.0036179758, Final residual = 2.2613094e-09, No Iterations 2
ExecutionTime = 1.63 s  ClockTime = 2 s

Time = 87

DILUPBiCGStab:  Solving for Ux, Initial residual = 0.0012546386, Final residual = 5.5456617e-10, No Iterations 1
DILUPBiCGStab:  Solving for Uz, Initial residual = 0.0626979, Final residual = 6.5522693e-09, No Iterations 7
GAMG:  Solving for p, Initial residual = 0.01274384, Final residual = 0.0011332127, No Iterations 4
time step continuity errors : sum local = 1.7603379e-08, global = -3.4653141e-11, cumulative = -4.2620139e-10
DILUPBiCGStab:  Solving for nuTilda, Initial residual = 0.0036300053, Final residual = 2.2003448e-09, No Iterations 2
ExecutionTime = 1.65 s  ClockTime = 2 s

Time = 88

DILUPBiCGStab:  Solving for Ux, Initial residual = 0.0012380982, Final residual = 5.8236579e-10, No Iterations 1
DILUPBiCGStab:  Solving for Uz, Initial residual = 0.062817318, Final residual = 6.995073e-09, No Iterations 7
GAMG:  Solving for p, Initial residual = 0.012625993, Final residual = 0.0012046675, No Iterations 3
time step continuity errors : sum local = 1.9280205e-08, global = 1.7774535e-10, cumulative = -2.4845605e-10
DILUPBiCGStab:  Solving for nuTilda, Initial residual = 0.0036419667, Final residual = 2.1447491e-09, No Iterations 2
ExecutionTime = 1.67 s  ClockTime = 2 s

Time = 89

DILUPBiCGStab:  Solving for Ux, Initial residual = 0.0012219397, Final residual = 6.0256514e-10, No Iterations 1
DILUPBiCGStab:  Solving for Uz, Initial residual = 0.062966356, Final residual = 6.2704575e-09, No Iterations 7
GAMG:  Solving for p, Initial residual = 0.012585533, Final residual = 0.0011670595, No Iterations 4
time step continuity errors : sum local = 1.9183586e-08, global = -2.1823358e-11, cumulative = -2.7027941e-10
DILUPBiCGStab:  Solving for nuTilda, Initial residual = 0.0036533938, Final residual = 2.0954209e-09, No Iterations 2
ExecutionTime = 1.69 s  ClockTime = 2 s

Time = 90

DILUPBiCGStab:  Solving for Ux, Initial residual = 0.0012061532, Final residual = 6.3415077e-10, No Iterations 1
DILUPBiCGStab:  Solving for Uz, Initial residual = 0.063065576, Final residual = 7.7251865e-09, No Iterations 7
GAMG:  Solving for p, Initial residual = 0.012476436, Final residual = 0.0011381255, No Iterations 3
time step continuity errors : sum local = 1.9276626e-08, global = 1.9950036e-10, cumulative = -7.0779051e-11
DILUPBiCGStab:  Solving for nuTilda, Initial residual = 0.0036641019, Final residual = 2.0526108e-09, No Iterations 2
ExecutionTime = 1.71 s  ClockTime = 2 s

Time = 91

DILUPBiCGStab:  Solving for Ux, Initial residual = 0.0011907268, Final residual = 6.5680924e-10, No Iterations 1
DILUPBiCGStab:  Solving for Uz, Initial residual = 0.063175749, Final residual = 6.9353942e-09, No Iterations 7
GAMG:  Solving for p, Initial residual = 0.012436395, Final residual = 0.0011612263, No Iterations 4
time step continuity errors : sum local = 2.0195021e-08, global = -1.6712379e-11, cumulative = -8.7491431e-11
DILUPBiCGStab:  Solving for nuTilda, Initial residual = 0.0036744108, Final residual = 2.0171835e-09, No Iterations 2
ExecutionTime = 1.73 s  ClockTime = 2 s

Time = 92

DILUPBiCGStab:  Solving for Ux, Initial residual = 0.0011756475, Final residual = 6.9158816e-10, No Iterations 1
DILUPBiCGStab:  Solving for Uz, Initial residual = 0.063255621, Final residual = 4.9392779e-09, No Iterations 8
GAMG:  Solving for p, Initial residual = 0.012335493, Final residual = 0.0010997761, No Iterations 3
time step continuity errors : sum local = 1.9702765e-08, global = 2.1375518e-10, cumulative = 1.2626374e-10
DILUPBiCGStab:  Solving for nuTilda, Initial residual = 0.003684354, Final residual = 1.9897581e-09, No Iterations 2
ExecutionTime = 1.74 s  ClockTime = 2 s

Time = 93

DILUPBiCGStab:  Solving for Ux, Initial residual = 0.0011609053, Final residual = 7.1718538e-10, No Iterations 1
DILUPBiCGStab:  Solving for Uz, Initial residual = 0.063334258, Final residual = 8.3821293e-09, No Iterations 8
GAMG:  Solving for p, Initial residual = 0.012292999, Final residual = 0.0011874002, No Iterations 4
time step continuity errors : sum local = 2.1838214e-08, global = -2.5794178e-11, cumulative = 1.0046957e-10
DILUPBiCGStab:  Solving for nuTilda, Initial residual = 0.003693957, Final residual = 1.9704817e-09, No Iterations 2
ExecutionTime = 1.76 s  ClockTime = 2 s

Time = 94

DILUPBiCGStab:  Solving for Ux, Initial residual = 0.0011464889, Final residual = 7.5586221e-10, No Iterations 1
DILUPBiCGStab:  Solving for Uz, Initial residual = 0.063391175, Final residual = 4.6330204e-09, No Iterations 8
GAMG:  Solving for p, Initial residual = 0.012198161, Final residual = 0.00064983557, No Iterations 4
time step continuity errors : sum local = 1.2310388e-08, global = 5.5679041e-11, cumulative = 1.5614861e-10
DILUPBiCGStab:  Solving for nuTilda, Initial residual = 0.0037032493, Final residual = 1.959558e-09, No Iterations 2
ExecutionTime = 1.78 s  ClockTime = 2 s

Time = 95

DILUPBiCGStab:  Solving for Ux, Initial residual = 0.0011323894, Final residual = 7.9441024e-10, No Iterations 1
DILUPBiCGStab:  Solving for Uz, Initial residual = 0.063385527, Final residual = 5.5960802e-09, No Iterations 8
GAMG:  Solving for p, Initial residual = 0.012109463, Final residual = 0.0011743097, No Iterations 2
time step continuity errors : sum local = 2.2857285e-08, global = 1.5724432e-10, cumulative = 3.1339293e-10
DILUPBiCGStab:  Solving for nuTilda, Initial residual = 0.0037122592, Final residual = 1.9554613e-09, No Iterations 2
ExecutionTime = 1.79 s  ClockTime = 2 s

Time = 96

DILUPBiCGStab:  Solving for Ux, Initial residual = 0.0011185965, Final residual = 8.1692612e-10, No Iterations 1
DILUPBiCGStab:  Solving for Uz, Initial residual = 0.06347161, Final residual = 6.5277616e-09, No Iterations 8
GAMG:  Solving for p, Initial residual = 0.012081593, Final residual = 0.00082605666, No Iterations 5
time step continuity errors : sum local = 1.6485692e-08, global = -1.6856714e-10, cumulative = 1.4482579e-10
DILUPBiCGStab:  Solving for nuTilda, Initial residual = 0.0037210129, Final residual = 1.9567307e-09, No Iterations 2
ExecutionTime = 1.81 s  ClockTime = 2 s

Time = 97

DILUPBiCGStab:  Solving for Ux, Initial residual = 0.0011050983, Final residual = 8.7315772e-10, No Iterations 1
DILUPBiCGStab:  Solving for Uz, Initial residual = 0.06343973, Final residual = 5.3869887e-09, No Iterations 8
GAMG:  Solving for p, Initial residual = 0.011958219, Final residual = 0.0006618866, No Iterations 2
time step continuity errors : sum local = 1.3615575e-08, global = -6.0071421e-10, cumulative = -4.5588842e-10
DILUPBiCGStab:  Solving for nuTilda, Initial residual = 0.0037295381, Final residual = 1.960533e-09, No Iterations 2
ExecutionTime = 1.82 s  ClockTime = 2 s

Time = 98

DILUPBiCGStab:  Solving for Ux, Initial residual = 0.0010918911, Final residual = 8.9918327e-10, No Iterations 1
DILUPBiCGStab:  Solving for Uz, Initial residual = 0.063489123, Final residual = 4.5528303e-09, No Iterations 8
GAMG:  Solving for p, Initial residual = 0.011909795, Final residual = 0.0010752109, No Iterations 5
time step continuity errors : sum local = 2.2623744e-08, global = -2.301069e-10, cumulative = -6.8599531e-10
DILUPBiCGStab:  Solving for nuTilda, Initial residual = 0.0037378583, Final residual = 1.9634856e-09, No Iterations 2
ExecutionTime = 1.84 s  ClockTime = 2 s

Time = 99

DILUPBiCGStab:  Solving for Ux, Initial residual = 0.0010789624, Final residual = 9.5410379e-10, No Iterations 1
DILUPBiCGStab:  Solving for Uz, Initial residual = 0.063470301, Final residual = 8.4360469e-09, No Iterations 7
GAMG:  Solving for p, Initial residual = 0.011775075, Final residual = 0.0011285421, No Iterations 4
time step continuity errors : sum local = 2.4472004e-08, global = -5.8987467e-11, cumulative = -7.4498278e-10
DILUPBiCGStab:  Solving for nuTilda, Initial residual = 0.0037457477, Final residual = 1.9611911e-09, No Iterations 2
ExecutionTime = 1.86 s  ClockTime = 2 s

Time = 100

DILUPBiCGStab:  Solving for Ux, Initial residual = 0.0010663027, Final residual = 1.0000431e-09, No Iterations 1
DILUPBiCGStab:  Solving for Uz, Initial residual = 0.063416097, Final residual = 6.9839984e-09, No Iterations 8
GAMG:  Solving for p, Initial residual = 0.0117177, Final residual = 0.0007407911, No Iterations 4
time step continuity errors : sum local = 1.652011e-08, global = 7.577149e-11, cumulative = -6.6921129e-10
DILUPBiCGStab:  Solving for nuTilda, Initial residual = 0.0037528626, Final residual = 1.947117e-09, No Iterations 2
ExecutionTime = 1.88 s  ClockTime = 2 s

Time = 101

DILUPBiCGStab:  Solving for Ux, Initial residual = 0.0010539094, Final residual = 1.0512505e-09, No Iterations 1
DILUPBiCGStab:  Solving for Uz, Initial residual = 0.063309819, Final residual = 3.0668142e-09, No Iterations 8
GAMG:  Solving for p, Initial residual = 0.011649378, Final residual = 0.00072006842, No Iterations 4
time step continuity errors : sum local = 1.6498738e-08, global = 9.3532919e-11, cumulative = -5.7567837e-10
DILUPBiCGStab:  Solving for nuTilda, Initial residual = 0.0037597987, Final residual = 1.9161525e-09, No Iterations 2
ExecutionTime = 1.9 s  ClockTime = 2 s

Time = 102

DILUPBiCGStab:  Solving for Ux, Initial residual = 0.0010417697, Final residual = 1.0985571e-09, No Iterations 1
DILUPBiCGStab:  Solving for Uz, Initial residual = 0.063241774, Final residual = 2.6970709e-09, No Iterations 8
GAMG:  Solving for p, Initial residual = 0.011590685, Final residual = 0.00086687925, No Iterations 4
time step continuity errors : sum local = 2.0390803e-08, global = 3.4926446e-11, cumulative = -5.4075193e-10
DILUPBiCGStab:  Solving for nuTilda, Initial residual = 0.0037665774, Final residual = 1.8619369e-09, No Iterations 2
ExecutionTime = 1.92 s  ClockTime = 2 s

Time = 103

DILUPBiCGStab:  Solving for Ux, Initial residual = 0.0010298783, Final residual = 1.1500313e-09, No Iterations 1
DILUPBiCGStab:  Solving for Uz, Initial residual = 0.063167544, Final residual = 2.6443823e-09, No Iterations 8
GAMG:  Solving for p, Initial residual = 0.011541346, Final residual = 0.00089650123, No Iterations 4
time step continuity errors : sum local = 2.1660883e-08, global = 8.3450881e-11, cumulative = -4.5730105e-10
DILUPBiCGStab:  Solving for nuTilda, Initial residual = 0.0037732183, Final residual = 1.7818479e-09, No Iterations 2
ExecutionTime = 1.94 s  ClockTime = 2 s

Time = 104

DILUPBiCGStab:  Solving for Ux, Initial residual = 0.0010182277, Final residual = 1.207846e-09, No Iterations 1
DILUPBiCGStab:  Solving for Uz, Initial residual = 0.063062955, Final residual = 2.6309192e-09, No Iterations 8
GAMG:  Solving for p, Initial residual = 0.01148814, Final residual = 0.0008502953, No Iterations 4
time step continuity errors : sum local = 2.1114138e-08, global = 1.1906143e-10, cumulative = -3.3823961e-10
DILUPBiCGStab:  Solving for nuTilda, Initial residual = 0.0037797385, Final residual = 1.6758126e-09, No Iterations 2
ExecutionTime = 1.95 s  ClockTime = 2 s

Time = 105

DILUPBiCGStab:  Solving for Ux, Initial residual = 0.0010068131, Final residual = 1.2685095e-09, No Iterations 1
DILUPBiCGStab:  Solving for Uz, Initial residual = 0.062935843, Final residual = 2.6272998e-09, No Iterations 8
GAMG:  Solving for p, Initial residual = 0.011430202, Final residual = 0.00082635654, No Iterations 4
time step continuity errors : sum local = 2.10838e-08, global = 1.28793e-10, cumulative = -2.0944661e-10
DILUPBiCGStab:  Solving for nuTilda, Initial residual = 0.0037861554, Final residual = 1.553253e-09, No Iterations 2
ExecutionTime = 1.97 s  ClockTime = 2 s

Time = 106

DILUPBiCGStab:  Solving for Ux, Initial residual = 0.00099562561, Final residual = 1.3314308e-09, No Iterations 1
DILUPBiCGStab:  Solving for Uz, Initial residual = 0.062797323, Final residual = 2.6360109e-09, No Iterations 8
GAMG:  Solving for p, Initial residual = 0.011370812, Final residual = 0.00083723233, No Iterations 4
time step continuity errors : sum local = 2.1941789e-08, global = 1.2399261e-10, cumulative = -8.5454004e-11
DILUPBiCGStab:  Solving for nuTilda, Initial residual = 0.0037918165, Final residual = 1.4274499e-09, No Iterations 2
ExecutionTime = 1.99 s  ClockTime = 2 s

Time = 107

DILUPBiCGStab:  Solving for Ux, Initial residual = 0.00098465685, Final residual = 1.3971481e-09, No Iterations 1
DILUPBiCGStab:  Solving for Uz, Initial residual = 0.062646397, Final residual = 2.6495695e-09, No Iterations 8
GAMG:  Solving for p, Initial residual = 0.011312458, Final residual = 0.00084888428, No Iterations 4
time step continuity errors : sum local = 2.2848235e-08, global = 1.2759251e-10, cumulative = 4.2138507e-11
DILUPBiCGStab:  Solving for nuTilda, Initial residual = 0.0037969764, Final residual = 1.3078662e-09, No Iterations 2
ExecutionTime = 2.01 s  ClockTime = 2 s

Time = 108

DILUPBiCGStab:  Solving for Ux, Initial residual = 0.00097390656, Final residual = 1.4659679e-09, No Iterations 1
DILUPBiCGStab:  Solving for Uz, Initial residual = 0.06248023, Final residual = 2.6589631e-09, No Iterations 8
GAMG:  Solving for p, Initial residual = 0.011254422, Final residual = 0.00085204282, No Iterations 4
time step continuity errors : sum local = 2.3550771e-08, global = 1.3868692e-10, cumulative = 1.8082542e-10
DILUPBiCGStab:  Solving for nuTilda, Initial residual = 0.0038020324, Final residual = 1.2042881e-09, No Iterations 2
ExecutionTime = 2.03 s  ClockTime = 2 s

Time = 109

DILUPBiCGStab:  Solving for Ux, Initial residual = 0.00096336455, Final residual = 1.5383597e-09, No Iterations 1
DILUPBiCGStab:  Solving for Uz, Initial residual = 0.062298334, Final residual = 2.6564358e-09, No Iterations 8
GAMG:  Solving for p, Initial residual = 0.011196067, Final residual = 0.00084990943, No Iterations 4
time step continuity errors : sum local = 2.4121775e-08, global = 1.5241466e-10, cumulative = 3.3324009e-10
DILUPBiCGStab:  Solving for nuTilda, Initial residual = 0.0038069978, Final residual = 1.1144274e-09, No Iterations 2
ExecutionTime = 2.04 s  ClockTime = 2 s

Time = 110

DILUPBiCGStab:  Solving for Ux, Initial residual = 0.00095302627, Final residual = 1.6143789e-09, No Iterations 1
DILUPBiCGStab:  Solving for Uz, Initial residual = 0.062101644, Final residual = 2.640943e-09, No Iterations 8
GAMG:  Solving for p, Initial residual = 0.011137583, Final residual = 0.0008644062, No Iterations 4
time step continuity errors : sum local = 2.5187777e-08, global = 1.6433927e-10, cumulative = 4.9757936e-10
DILUPBiCGStab:  Solving for nuTilda, Initial residual = 0.0038118817, Final residual = 1.0361282e-09, No Iterations 2
ExecutionTime = 2.06 s  ClockTime = 2 s

Time = 111

DILUPBiCGStab:  Solving for Ux, Initial residual = 0.00094288481, Final residual = 1.6936532e-09, No Iterations 1
DILUPBiCGStab:  Solving for Uz, Initial residual = 0.061893109, Final residual = 2.6174333e-09, No Iterations 8
GAMG:  Solving for p, Initial residual = 0.011080358, Final residual = 0.0008830078, No Iterations 4
time step continuity errors : sum local = 2.6412932e-08, global = 1.6397894e-10, cumulative = 6.6155829e-10
DILUPBiCGStab:  Solving for nuTilda, Initial residual = 0.0038164014, Final residual = 9.6934367e-10, No Iterations 2
ExecutionTime = 2.08 s  ClockTime = 2 s

Time = 112

DILUPBiCGStab:  Solving for Ux, Initial residual = 0.00093293986, Final residual = 1.7769831e-09, No Iterations 1
DILUPBiCGStab:  Solving for Uz, Initial residual = 0.061670509, Final residual = 2.5873545e-09, No Iterations 8
GAMG:  Solving for p, Initial residual = 0.011025685, Final residual = 0.00087841797, No Iterations 4
time step continuity errors : sum local = 2.6969905e-08, global = 1.8956577e-10, cumulative = 8.5112407e-10
DILUPBiCGStab:  Solving for nuTilda, Initial residual = 0.0038199202, Final residual = 9.1252371e-10, No Iterations 2
ExecutionTime = 2.1 s  ClockTime = 2 s

Time = 113

DILUPBiCGStab:  Solving for Ux, Initial residual = 0.00092318026, Final residual = 1.8644225e-09, No Iterations 1
DILUPBiCGStab:  Solving for Uz, Initial residual = 0.061433106, Final residual = 9.6643865e-09, No Iterations 7
GAMG:  Solving for p, Initial residual = 0.010970663, Final residual = 0.00087374506, No Iterations 4
time step continuity errors : sum local = 2.7532303e-08, global = 2.0681483e-10, cumulative = 1.0579389e-09
DILUPBiCGStab:  Solving for nuTilda, Initial residual = 0.0038233419, Final residual = 8.6454864e-10, No Iterations 2
ExecutionTime = 2.12 s  ClockTime = 2 s

Time = 114

DILUPBiCGStab:  Solving for Ux, Initial residual = 0.00091360364, Final residual = 1.9557354e-09, No Iterations 1
DILUPBiCGStab:  Solving for Uz, Initial residual = 0.061183167, Final residual = 9.3573482e-09, No Iterations 7
GAMG:  Solving for p, Initial residual = 0.010915178, Final residual = 0.00087182743, No Iterations 4
time step continuity errors : sum local = 2.8191242e-08, global = 2.2272816e-10, cumulative = 1.2806671e-09
DILUPBiCGStab:  Solving for nuTilda, Initial residual = 0.0038266678, Final residual = 8.2407468e-10, No Iterations 2
ExecutionTime = 2.13 s  ClockTime = 2 s

Time = 115

DILUPBiCGStab:  Solving for Ux, Initial residual = 0.00090420521, Final residual = 2.0518513e-09, No Iterations 1
DILUPBiCGStab:  Solving for Uz, Initial residual = 0.060921527, Final residual = 8.912339e-09, No Iterations 7
GAMG:  Solving for p, Initial residual = 0.010859829, Final residual = 0.00087226567, No Iterations 4
time step continuity errors : sum local = 2.8940792e-08, global = 2.3762212e-10, cumulative = 1.5182892e-09
DILUPBiCGStab:  Solving for nuTilda, Initial residual = 0.0038298985, Final residual = 9.9583068e-09, No Iterations 1
ExecutionTime = 2.15 s  ClockTime = 2 s

Time = 116

DILUPBiCGStab:  Solving for Ux, Initial residual = 0.00089498378, Final residual = 2.1519271e-09, No Iterations 1
DILUPBiCGStab:  Solving for Uz, Initial residual = 0.060648811, Final residual = 8.4998992e-09, No Iterations 7
GAMG:  Solving for p, Initial residual = 0.010805125, Final residual = 0.00087575072, No Iterations 4
time step continuity errors : sum local = 2.9810918e-08, global = 2.5045318e-10, cumulative = 1.7687423e-09
DILUPBiCGStab:  Solving for nuTilda, Initial residual = 0.0038322231, Final residual = 9.7490369e-09, No Iterations 1
ExecutionTime = 2.17 s  ClockTime = 3 s

Time = 117

DILUPBiCGStab:  Solving for Ux, Initial residual = 0.00088592893, Final residual = 2.2574317e-09, No Iterations 1
DILUPBiCGStab:  Solving for Uz, Initial residual = 0.060365588, Final residual = 8.149078e-09, No Iterations 7
GAMG:  Solving for p, Initial residual = 0.010751321, Final residual = 0.00088222098, No Iterations 4
time step continuity errors : sum local = 3.0807811e-08, global = 2.6159913e-10, cumulative = 2.0303415e-09
DILUPBiCGStab:  Solving for nuTilda, Initial residual = 0.0038339278, Final residual = 9.6462205e-09, No Iterations 1
ExecutionTime = 2.19 s  ClockTime = 3 s

Time = 118

DILUPBiCGStab:  Solving for Ux, Initial residual = 0.00087703919, Final residual = 2.3673571e-09, No Iterations 1
DILUPBiCGStab:  Solving for Uz, Initial residual = 0.0600724, Final residual = 7.8434375e-09, No Iterations 7
GAMG:  Solving for p, Initial residual = 0.01069851, Final residual = 0.00089092952, No Iterations 4
time step continuity errors : sum local = 3.1913512e-08, global = 2.7169265e-10, cumulative = 2.3020341e-09
DILUPBiCGStab:  Solving for nuTilda, Initial residual = 0.0038355072, Final residual = 9.6515326e-09, No Iterations 1
ExecutionTime = 2.21 s  ClockTime = 3 s

Time = 119

DILUPBiCGStab:  Solving for Ux, Initial residual = 0.00086831059, Final residual = 2.4829183e-09, No Iterations 1
DILUPBiCGStab:  Solving for Uz, Initial residual = 0.059769727, Final residual = 7.5677571e-09, No Iterations 7
GAMG:  Solving for p, Initial residual = 0.010647024, Final residual = 0.00090079983, No Iterations 4
time step continuity errors : sum local = 3.3095384e-08, global = 2.8121914e-10, cumulative = 2.5832533e-09
DILUPBiCGStab:  Solving for nuTilda, Initial residual = 0.003836957, Final residual = 9.7442832e-09, No Iterations 1
ExecutionTime = 2.22 s  ClockTime = 3 s

Time = 120

DILUPBiCGStab:  Solving for Ux, Initial residual = 0.0008597422, Final residual = 2.6034319e-09, No Iterations 1
DILUPBiCGStab:  Solving for Uz, Initial residual = 0.059457985, Final residual = 7.3117215e-09, No Iterations 7
GAMG:  Solving for p, Initial residual = 0.010596686, Final residual = 0.00091137462, No Iterations 4
time step continuity errors : sum local = 3.434068e-08, global = 2.9041853e-10, cumulative = 2.8736718e-09
DILUPBiCGStab:  Solving for nuTilda, Initial residual = 0.0038375456, Final residual = 9.9219839e-09, No Iterations 1
ExecutionTime = 2.24 s  ClockTime = 3 s

Time = 121

DILUPBiCGStab:  Solving for Ux, Initial residual = 0.00085132531, Final residual = 2.7299879e-09, No Iterations 1
DILUPBiCGStab:  Solving for Uz, Initial residual = 0.059137608, Final residual = 7.0658377e-09, No Iterations 7
GAMG:  Solving for p, Initial residual = 0.010547456, Final residual = 0.00092240596, No Iterations 4
time step continuity errors : sum local = 3.5642736e-08, global = 2.9937991e-10, cumulative = 3.1730517e-09
DILUPBiCGStab:  Solving for nuTilda, Initial residual = 0.0038373214, Final residual = 6.9932254e-10, No Iterations 2
ExecutionTime = 2.26 s  ClockTime = 3 s

Time = 122

DILUPBiCGStab:  Solving for Ux, Initial residual = 0.00084305823, Final residual = 2.8617634e-09, No Iterations 1
DILUPBiCGStab:  Solving for Uz, Initial residual = 0.058809088, Final residual = 6.8249331e-09, No Iterations 7
GAMG:  Solving for p, Initial residual = 0.010499337, Final residual = 0.00093378781, No Iterations 4
time step continuity errors : sum local = 3.6999652e-08, global = 3.0807627e-10, cumulative = 3.481128e-09
DILUPBiCGStab:  Solving for nuTilda, Initial residual = 0.0038369275, Final residual = 7.0184912e-10, No Iterations 2
ExecutionTime = 2.28 s  ClockTime = 3 s

Time = 123

DILUPBiCGStab:  Solving for Ux, Initial residual = 0.00083493654, Final residual = 3.0002563e-09, No Iterations 1
DILUPBiCGStab:  Solving for Uz, Initial residual = 0.05847288, Final residual = 6.5866591e-09, No Iterations 7
GAMG:  Solving for p, Initial residual = 0.010452329, Final residual = 0.00094546525, No Iterations 4
time step continuity errors : sum local = 3.8411347e-08, global = 3.1646311e-10, cumulative = 3.7975911e-09
DILUPBiCGStab:  Solving for nuTilda, Initial residual = 0.0038363566, Final residual = 7.0969616e-10, No Iterations 2
ExecutionTime = 2.3 s  ClockTime = 3 s

Time = 124

DILUPBiCGStab:  Solving for Ux, Initial residual = 0.00082696064, Final residual = 3.1441143e-09, No Iterations 1
DILUPBiCGStab:  Solving for Uz, Initial residual = 0.0581293, Final residual = 6.3523087e-09, No Iterations 7
GAMG:  Solving for p, Initial residual = 0.010406324, Final residual = 0.00095738025, No Iterations 4
time step continuity errors : sum local = 3.98776e-08, global = 3.2454065e-10, cumulative = 4.1221317e-09
DILUPBiCGStab:  Solving for nuTilda, Initial residual = 0.0038344075, Final residual = 7.2234066e-10, No Iterations 2
ExecutionTime = 2.31 s  ClockTime = 3 s

Time = 125

DILUPBiCGStab:  Solving for Ux, Initial residual = 0.0008191246, Final residual = 3.2951558e-09, No Iterations 1
DILUPBiCGStab:  Solving for Uz, Initial residual = 0.0577787, Final residual = 6.1230996e-09, No Iterations 7
GAMG:  Solving for p, Initial residual = 0.010361076, Final residual = 0.0009694963, No Iterations 4
time step continuity errors : sum local = 4.1399195e-08, global = 3.3229922e-10, cumulative = 4.454431e-09
DILUPBiCGStab:  Solving for nuTilda, Initial residual = 0.0038320191, Final residual = 7.4022611e-10, No Iterations 2
ExecutionTime = 2.32 s  ClockTime = 3 s

Time = 126

DILUPBiCGStab:  Solving for Ux, Initial residual = 0.00081142522, Final residual = 3.4518682e-09, No Iterations 1
DILUPBiCGStab:  Solving for Uz, Initial residual = 0.057421373, Final residual = 5.9010069e-09, No Iterations 7
GAMG:  Solving for p, Initial residual = 0.010316425, Final residual = 0.0009816773, No Iterations 4
time step continuity errors : sum local = 4.297227e-08, global = 3.3979088e-10, cumulative = 4.7942218e-09
DILUPBiCGStab:  Solving for nuTilda, Initial residual = 0.0038294202, Final residual = 7.6286525e-10, No Iterations 2
ExecutionTime = 2.34 s  ClockTime = 3 s

Time = 127

DILUPBiCGStab:  Solving for Ux, Initial residual = 0.00080385678, Final residual = 3.6156958e-09, No Iterations 1
DILUPBiCGStab:  Solving for Uz, Initial residual = 0.05705759, Final residual = 5.6880429e-09, No Iterations 7
GAMG:  Solving for p, Initial residual = 0.010272251, Final residual = 0.00099379444, No Iterations 4
time step continuity errors : sum local = 4.4592327e-08, global = 3.4706765e-10, cumulative = 5.1412895e-09
DILUPBiCGStab:  Solving for nuTilda, Initial residual = 0.0038259079, Final residual = 7.8979973e-10, No Iterations 2
ExecutionTime = 2.36 s  ClockTime = 3 s

Time = 128

DILUPBiCGStab:  Solving for Ux, Initial residual = 0.00079642171, Final residual = 3.7862887e-09, No Iterations 1
DILUPBiCGStab:  Solving for Uz, Initial residual = 0.056687584, Final residual = 5.4845012e-09, No Iterations 7
GAMG:  Solving for p, Initial residual = 0.010228565, Final residual = 0.0010057886, No Iterations 4
time step continuity errors : sum local = 4.6257524e-08, global = 3.5419944e-10, cumulative = 5.4954889e-09
DILUPBiCGStab:  Solving for nuTilda, Initial residual = 0.0038216216, Final residual = 8.2138942e-10, No Iterations 2
ExecutionTime = 2.38 s  ClockTime = 3 s

Time = 129

DILUPBiCGStab:  Solving for Ux, Initial residual = 0.00078911744, Final residual = 3.9632313e-09, No Iterations 1
DILUPBiCGStab:  Solving for Uz, Initial residual = 0.056311642, Final residual = 5.2909672e-09, No Iterations 7
GAMG:  Solving for p, Initial residual = 0.010185279, Final residual = 0.0010176221, No Iterations 4
[...]
time step continuity errors : sum local = 7.5953673e-10, global = 2.1034773e-12, cumulative = -3.1783259e-07
DILUPBiCGStab:  Solving for nuTilda, Initial residual = 1.0079983e-06, Final residual = 3.619568e-09, No Iterations 1
ExecutionTime = 116.63 s  ClockTime = 117 s

Time = 4386

DILUPBiCGStab:  Solving for Ux, Initial residual = 9.2750717e-07, Final residual = 1.5054344e-09, No Iterations 1
DILUPBiCGStab:  Solving for Uz, Initial residual = 1.033902e-05, Final residual = 2.9864704e-09, No Iterations 2
GAMG:  Solving for p, Initial residual = 2.0810513e-06, Final residual = 1.9464517e-07, No Iterations 9
time step continuity errors : sum local = 8.7715795e-10, global = 4.318629e-13, cumulative = -3.1783216e-07
DILUPBiCGStab:  Solving for nuTilda, Initial residual = 1.0066139e-06, Final residual = 3.6145964e-09, No Iterations 1
ExecutionTime = 116.66 s  ClockTime = 117 s

Time = 4387

DILUPBiCGStab:  Solving for Ux, Initial residual = 9.2625052e-07, Final residual = 1.5064329e-09, No Iterations 1
DILUPBiCGStab:  Solving for Uz, Initial residual = 1.0327646e-05, Final residual = 2.9862418e-09, No Iterations 2
GAMG:  Solving for p, Initial residual = 2.0808293e-06, Final residual = 2.0532473e-07, No Iterations 9
time step continuity errors : sum local = 9.2640777e-10, global = -2.5871506e-12, cumulative = -3.1783474e-07
DILUPBiCGStab:  Solving for nuTilda, Initial residual = 1.005226e-06, Final residual = 3.6096106e-09, No Iterations 1
ExecutionTime = 116.68 s  ClockTime = 117 s

Time = 4388

DILUPBiCGStab:  Solving for Ux, Initial residual = 9.2495359e-07, Final residual = 1.5016436e-09, No Iterations 1
DILUPBiCGStab:  Solving for Uz, Initial residual = 1.0316496e-05, Final residual = 2.9799182e-09, No Iterations 2
GAMG:  Solving for p, Initial residual = 2.075203e-06, Final residual = 1.6401153e-07, No Iterations 9
time step continuity errors : sum local = 7.3984797e-10, global = 2.0735664e-12, cumulative = -3.1783267e-07
DILUPBiCGStab:  Solving for nuTilda, Initial residual = 1.0038388e-06, Final residual = 3.6046151e-09, No Iterations 1
ExecutionTime = 116.71 s  ClockTime = 117 s

Time = 4389

DILUPBiCGStab:  Solving for Ux, Initial residual = 9.2367434e-07, Final residual = 1.4970811e-09, No Iterations 1
DILUPBiCGStab:  Solving for Uz, Initial residual = 1.0302507e-05, Final residual = 2.9728904e-09, No Iterations 2
GAMG:  Solving for p, Initial residual = 2.0723109e-06, Final residual = 1.2868814e-07, No Iterations 10
time step continuity errors : sum local = 5.8156046e-10, global = 5.7681568e-13, cumulative = -3.1783209e-07
DILUPBiCGStab:  Solving for nuTilda, Initial residual = 1.0024597e-06, Final residual = 3.5996664e-09, No Iterations 1
ExecutionTime = 116.74 s  ClockTime = 117 s

Time = 4390

DILUPBiCGStab:  Solving for Ux, Initial residual = 9.2243758e-07, Final residual = 1.5000452e-09, No Iterations 1
DILUPBiCGStab:  Solving for Uz, Initial residual = 1.029297e-05, Final residual = 2.9724184e-09, No Iterations 2
GAMG:  Solving for p, Initial residual = 2.0671942e-06, Final residual = 1.5530849e-07, No Iterations 9
time step continuity errors : sum local = 6.9994876e-10, global = 2.0023324e-12, cumulative = -3.1783009e-07
DILUPBiCGStab:  Solving for nuTilda, Initial residual = 1.0010759e-06, Final residual = 3.5946842e-09, No Iterations 1
ExecutionTime = 116.76 s  ClockTime = 117 s

Time = 4391

DILUPBiCGStab:  Solving for Ux, Initial residual = 9.2114249e-07, Final residual = 1.4935743e-09, No Iterations 1
DILUPBiCGStab:  Solving for Uz, Initial residual = 1.0279572e-05, Final residual = 2.9642453e-09, No Iterations 2
GAMG:  Solving for p, Initial residual = 2.0646564e-06, Final residual = 1.2675915e-07, No Iterations 10
time step continuity errors : sum local = 5.7262535e-10, global = 1.3468553e-13, cumulative = -3.1782996e-07
DILUPBiCGStab:  Solving for nuTilda, Initial residual = 9.9969857e-07, Final residual = 3.5897399e-09, No Iterations 1
ExecutionTime = 116.79 s  ClockTime = 117 s

Time = 4392

DILUPBiCGStab:  Solving for Ux, Initial residual = 9.1989733e-07, Final residual = 1.4946777e-09, No Iterations 1
DILUPBiCGStab:  Solving for Uz, Initial residual = 1.0269229e-05, Final residual = 2.962612e-09, No Iterations 2
GAMG:  Solving for p, Initial residual = 2.0599322e-06, Final residual = 1.4585647e-07, No Iterations 10
time step continuity errors : sum local = 6.5807249e-10, global = 1.2840799e-12, cumulative = -3.1782867e-07
DILUPBiCGStab:  Solving for nuTilda, Initial residual = 9.983212e-07, Final residual = 3.5847838e-09, No Iterations 1
ExecutionTime = 116.82 s  ClockTime = 117 s

Time = 4393

DILUPBiCGStab:  Solving for Ux, Initial residual = 9.1862805e-07, Final residual = 1.4911387e-09, No Iterations 1
DILUPBiCGStab:  Solving for Uz, Initial residual = 1.0257802e-05, Final residual = 2.9579372e-09, No Iterations 2
GAMG:  Solving for p, Initial residual = 2.0545559e-06, Final residual = 1.8997507e-07, No Iterations 9
time step continuity errors : sum local = 8.5822377e-10, global = 3.9415439e-12, cumulative = -3.1782473e-07
DILUPBiCGStab:  Solving for nuTilda, Initial residual = 9.9694496e-07, Final residual = 3.5798342e-09, No Iterations 1
ExecutionTime = 116.84 s  ClockTime = 117 s

Time = 4394

DILUPBiCGStab:  Solving for Ux, Initial residual = 9.1736189e-07, Final residual = 1.4884254e-09, No Iterations 1
DILUPBiCGStab:  Solving for Uz, Initial residual = 1.0244062e-05, Final residual = 2.9523174e-09, No Iterations 2
GAMG:  Solving for p, Initial residual = 2.0540941e-06, Final residual = 1.4053624e-07, No Iterations 10
time step continuity errors : sum local = 6.3402782e-10, global = 9.9986151e-13, cumulative = -3.1782373e-07
DILUPBiCGStab:  Solving for nuTilda, Initial residual = 9.9557469e-07, Final residual = 3.5749181e-09, No Iterations 1
ExecutionTime = 116.87 s  ClockTime = 117 s

Time = 4395

DILUPBiCGStab:  Solving for Ux, Initial residual = 9.1612381e-07, Final residual = 1.4900075e-09, No Iterations 1
DILUPBiCGStab:  Solving for Uz, Initial residual = 1.0236078e-05, Final residual = 2.9513661e-09, No Iterations 2
GAMG:  Solving for p, Initial residual = 2.047155e-06, Final residual = 1.5303368e-07, No Iterations 9
time step continuity errors : sum local = 6.9038301e-10, global = 1.62647e-12, cumulative = -3.1782211e-07
DILUPBiCGStab:  Solving for nuTilda, Initial residual = 9.9419952e-07, Final residual = 3.5699656e-09, No Iterations 1
ExecutionTime = 116.89 s  ClockTime = 117 s

Time = 4396

DILUPBiCGStab:  Solving for Ux, Initial residual = 9.1483461e-07, Final residual = 1.4829696e-09, No Iterations 1
DILUPBiCGStab:  Solving for Uz, Initial residual = 1.0221845e-05, Final residual = 2.9418576e-09, No Iterations 2
GAMG:  Solving for p, Initial residual = 2.0442367e-06, Final residual = 1.6253951e-07, No Iterations 12
time step continuity errors : sum local = 7.3352764e-10, global = -3.4288518e-12, cumulative = -3.1782553e-07
DILUPBiCGStab:  Solving for nuTilda, Initial residual = 9.9283165e-07, Final residual = 3.5650587e-09, No Iterations 1
ExecutionTime = 116.92 s  ClockTime = 117 s

Time = 4397

DILUPBiCGStab:  Solving for Ux, Initial residual = 9.1360218e-07, Final residual = 1.4847968e-09, No Iterations 1
DILUPBiCGStab:  Solving for Uz, Initial residual = 1.0213137e-05, Final residual = 2.9430734e-09, No Iterations 2
GAMG:  Solving for p, Initial residual = 2.0377722e-06, Final residual = 1.8628876e-07, No Iterations 9
time step continuity errors : sum local = 8.3942477e-10, global = 5.9663464e-12, cumulative = -3.1781957e-07
DILUPBiCGStab:  Solving for nuTilda, Initial residual = 9.9146474e-07, Final residual = 3.5601332e-09, No Iterations 1
ExecutionTime = 116.95 s  ClockTime = 117 s

Time = 4398

DILUPBiCGStab:  Solving for Ux, Initial residual = 9.1234804e-07, Final residual = 1.4812045e-09, No Iterations 1
DILUPBiCGStab:  Solving for Uz, Initial residual = 1.0200159e-05, Final residual = 2.9366347e-09, No Iterations 2
GAMG:  Solving for p, Initial residual = 2.0387412e-06, Final residual = 1.4679555e-07, No Iterations 9
time step continuity errors : sum local = 6.6312705e-10, global = 1.0622483e-12, cumulative = -3.1781851e-07
DILUPBiCGStab:  Solving for nuTilda, Initial residual = 9.900981e-07, Final residual = 3.555229e-09, No Iterations 1
ExecutionTime = 116.97 s  ClockTime = 117 s

Time = 4399

DILUPBiCGStab:  Solving for Ux, Initial residual = 9.1108539e-07, Final residual = 1.4793199e-09, No Iterations 1
DILUPBiCGStab:  Solving for Uz, Initial residual = 1.0188446e-05, Final residual = 2.9367259e-09, No Iterations 2
GAMG:  Solving for p, Initial residual = 2.0348199e-06, Final residual = 1.5322476e-07, No Iterations 10
time step continuity errors : sum local = 6.9158196e-10, global = 1.0691693e-12, cumulative = -3.1781744e-07
DILUPBiCGStab:  Solving for nuTilda, Initial residual = 9.8873418e-07, Final residual = 3.5503238e-09, No Iterations 1
ExecutionTime = 117 s  ClockTime = 117 s

Time = 4400

DILUPBiCGStab:  Solving for Ux, Initial residual = 9.0984018e-07, Final residual = 1.4773692e-09, No Iterations 1
DILUPBiCGStab:  Solving for Uz, Initial residual = 1.0178393e-05, Final residual = 2.9303794e-09, No Iterations 2
GAMG:  Solving for p, Initial residual = 2.0304362e-06, Final residual = 2.0013004e-07, No Iterations 9
time step continuity errors : sum local = 9.0183765e-10, global = -4.7239952e-12, cumulative = -3.1782216e-07
DILUPBiCGStab:  Solving for nuTilda, Initial residual = 9.8737051e-07, Final residual = 3.5454285e-09, No Iterations 1
ExecutionTime = 117.03 s  ClockTime = 117 s

Time = 4401

DILUPBiCGStab:  Solving for Ux, Initial residual = 9.08583e-07, Final residual = 1.4750333e-09, No Iterations 1
DILUPBiCGStab:  Solving for Uz, Initial residual = 1.0168239e-05, Final residual = 2.928751e-09, No Iterations 2
GAMG:  Solving for p, Initial residual = 2.0330939e-06, Final residual = 1.9250091e-07, No Iterations 9
time step continuity errors : sum local = 8.6794032e-10, global = 6.11337e-12, cumulative = -3.1781605e-07
DILUPBiCGStab:  Solving for nuTilda, Initial residual = 9.8601255e-07, Final residual = 3.5405367e-09, No Iterations 1
ExecutionTime = 117.05 s  ClockTime = 117 s

Time = 4402

DILUPBiCGStab:  Solving for Ux, Initial residual = 9.0735593e-07, Final residual = 1.4738522e-09, No Iterations 1
DILUPBiCGStab:  Solving for Uz, Initial residual = 1.0155523e-05, Final residual = 2.9219899e-09, No Iterations 2
GAMG:  Solving for p, Initial residual = 2.0299988e-06, Final residual = 1.3755193e-07, No Iterations 9
time step continuity errors : sum local = 6.2093512e-10, global = 4.7961717e-13, cumulative = -3.1781557e-07
DILUPBiCGStab:  Solving for nuTilda, Initial residual = 9.8465384e-07, Final residual = 3.535662e-09, No Iterations 1
ExecutionTime = 117.08 s  ClockTime = 117 s

Time = 4403

DILUPBiCGStab:  Solving for Ux, Initial residual = 9.0609762e-07, Final residual = 1.4718478e-09, No Iterations 1
DILUPBiCGStab:  Solving for Uz, Initial residual = 1.0145018e-05, Final residual = 2.9225757e-09, No Iterations 2
GAMG:  Solving for p, Initial residual = 2.0266473e-06, Final residual = 1.4293044e-07, No Iterations 10
time step continuity errors : sum local = 6.4486247e-10, global = 1.8262252e-13, cumulative = -3.1781538e-07
DILUPBiCGStab:  Solving for nuTilda, Initial residual = 9.832975e-07, Final residual = 3.5307854e-09, No Iterations 1
ExecutionTime = 117.1 s  ClockTime = 117 s

Time = 4404

DILUPBiCGStab:  Solving for Ux, Initial residual = 9.048571e-07, Final residual = 1.4696638e-09, No Iterations 1
DILUPBiCGStab:  Solving for Uz, Initial residual = 1.0132171e-05, Final residual = 2.9153282e-09, No Iterations 2
GAMG:  Solving for p, Initial residual = 2.0255528e-06, Final residual = 1.2275985e-07, No Iterations 10
time step continuity errors : sum local = 5.5373995e-10, global = 9.9151371e-13, cumulative = -3.1781439e-07
DILUPBiCGStab:  Solving for nuTilda, Initial residual = 9.8194402e-07, Final residual = 3.5259226e-09, No Iterations 1
ExecutionTime = 117.13 s  ClockTime = 117 s

Time = 4405

DILUPBiCGStab:  Solving for Ux, Initial residual = 9.0362041e-07, Final residual = 1.4684064e-09, No Iterations 1
DILUPBiCGStab:  Solving for Uz, Initial residual = 1.0120861e-05, Final residual = 2.9121439e-09, No Iterations 2
GAMG:  Solving for p, Initial residual = 2.0231969e-06, Final residual = 1.4346538e-07, No Iterations 10
time step continuity errors : sum local = 6.4750347e-10, global = 1.487735e-12, cumulative = -3.1781291e-07
DILUPBiCGStab:  Solving for nuTilda, Initial residual = 9.8059143e-07, Final residual = 3.5210589e-09, No Iterations 1
ExecutionTime = 117.16 s  ClockTime = 118 s

Time = 4406

DILUPBiCGStab:  Solving for Ux, Initial residual = 9.02376e-07, Final residual = 1.4656505e-09, No Iterations 1
DILUPBiCGStab:  Solving for Uz, Initial residual = 1.0110359e-05, Final residual = 2.9076494e-09, No Iterations 2
GAMG:  Solving for p, Initial residual = 2.021519e-06, Final residual = 1.6303581e-07, No Iterations 9
time step continuity errors : sum local = 7.3422122e-10, global = 2.175672e-12, cumulative = -3.1781073e-07
DILUPBiCGStab:  Solving for nuTilda, Initial residual = 9.7923875e-07, Final residual = 3.5161943e-09, No Iterations 1
ExecutionTime = 117.19 s  ClockTime = 118 s

Time = 4407

DILUPBiCGStab:  Solving for Ux, Initial residual = 9.0112672e-07, Final residual = 1.4622072e-09, No Iterations 1
DILUPBiCGStab:  Solving for Uz, Initial residual = 1.009866e-05, Final residual = 2.9040828e-09, No Iterations 2
GAMG:  Solving for p, Initial residual = 2.0191309e-06, Final residual = 1.4745674e-07, No Iterations 10
time step continuity errors : sum local = 6.6496081e-10, global = 1.37898e-12, cumulative = -3.1780935e-07
DILUPBiCGStab:  Solving for nuTilda, Initial residual = 9.7789147e-07, Final residual = 3.5113562e-09, No Iterations 1
ExecutionTime = 117.22 s  ClockTime = 118 s

Time = 4408

DILUPBiCGStab:  Solving for Ux, Initial residual = 8.9990738e-07, Final residual = 1.4628256e-09, No Iterations 1
DILUPBiCGStab:  Solving for Uz, Initial residual = 1.0088483e-05, Final residual = 2.9006482e-09, No Iterations 2
GAMG:  Solving for p, Initial residual = 2.0176926e-06, Final residual = 1.9804108e-07, No Iterations 9
time step continuity errors : sum local = 8.934253e-10, global = -2.2194488e-12, cumulative = -3.1781157e-07
DILUPBiCGStab:  Solving for nuTilda, Initial residual = 9.7654282e-07, Final residual = 3.5065123e-09, No Iterations 1
ExecutionTime = 117.24 s  ClockTime = 118 s

Time = 4409

DILUPBiCGStab:  Solving for Ux, Initial residual = 8.9865822e-07, Final residual = 1.4594016e-09, No Iterations 1
DILUPBiCGStab:  Solving for Uz, Initial residual = 1.0076409e-05, Final residual = 2.896631e-09, No Iterations 2
GAMG:  Solving for p, Initial residual = 2.0132766e-06, Final residual = 1.4015224e-07, No Iterations 10
time step continuity errors : sum local = 6.3354619e-10, global = -1.0963939e-12, cumulative = -3.1781267e-07
DILUPBiCGStab:  Solving for nuTilda, Initial residual = 9.7519908e-07, Final residual = 3.5016815e-09, No Iterations 1
ExecutionTime = 117.27 s  ClockTime = 118 s

Time = 4410

DILUPBiCGStab:  Solving for Ux, Initial residual = 8.9743947e-07, Final residual = 1.4586495e-09, No Iterations 1
DILUPBiCGStab:  Solving for Uz, Initial residual = 1.0064325e-05, Final residual = 2.8917908e-09, No Iterations 2
GAMG:  Solving for p, Initial residual = 2.0050637e-06, Final residual = 1.4674433e-07, No Iterations 9
time step continuity errors : sum local = 6.6225822e-10, global = 3.4557131e-12, cumulative = -3.1780921e-07
DILUPBiCGStab:  Solving for nuTilda, Initial residual = 9.73855e-07, Final residual = 3.4968407e-09, No Iterations 1
ExecutionTime = 117.3 s  ClockTime = 118 s

Time = 4411

DILUPBiCGStab:  Solving for Ux, Initial residual = 8.9619834e-07, Final residual = 1.4547513e-09, No Iterations 1
DILUPBiCGStab:  Solving for Uz, Initial residual = 1.0053428e-05, Final residual = 2.8860137e-09, No Iterations 2
GAMG:  Solving for p, Initial residual = 2.0048951e-06, Final residual = 1.9743769e-07, No Iterations 9
time step continuity errors : sum local = 8.9034391e-10, global = 3.4377855e-12, cumulative = -3.1780577e-07
DILUPBiCGStab:  Solving for nuTilda, Initial residual = 9.7251251e-07, Final residual = 3.4920174e-09, No Iterations 1
ExecutionTime = 117.32 s  ClockTime = 118 s

Time = 4412

DILUPBiCGStab:  Solving for Ux, Initial residual = 8.9496481e-07, Final residual = 1.4530823e-09, No Iterations 1
DILUPBiCGStab:  Solving for Uz, Initial residual = 1.0042398e-05, Final residual = 2.8842147e-09, No Iterations 2
GAMG:  Solving for p, Initial residual = 2.0036538e-06, Final residual = 1.463127e-07, No Iterations 10
time step continuity errors : sum local = 6.610084e-10, global = -2.6394769e-13, cumulative = -3.1780604e-07
DILUPBiCGStab:  Solving for nuTilda, Initial residual = 9.7117335e-07, Final residual = 3.4872095e-09, No Iterations 1
ExecutionTime = 117.35 s  ClockTime = 118 s

Time = 4413

DILUPBiCGStab:  Solving for Ux, Initial residual = 8.9374472e-07, Final residual = 1.4525559e-09, No Iterations 1
DILUPBiCGStab:  Solving for Uz, Initial residual = 1.0033136e-05, Final residual = 2.8819221e-09, No Iterations 2
GAMG:  Solving for p, Initial residual = 2.00235e-06, Final residual = 1.7613631e-07, No Iterations 9
time step continuity errors : sum local = 7.9428434e-10, global = 2.999839e-12, cumulative = -3.1780304e-07
DILUPBiCGStab:  Solving for nuTilda, Initial residual = 9.6983608e-07, Final residual = 3.4823995e-09, No Iterations 1
ExecutionTime = 117.38 s  ClockTime = 118 s

Time = 4414

DILUPBiCGStab:  Solving for Ux, Initial residual = 8.9252012e-07, Final residual = 1.4501565e-09, No Iterations 1
DILUPBiCGStab:  Solving for Uz, Initial residual = 1.0020962e-05, Final residual = 2.8779019e-09, No Iterations 2
GAMG:  Solving for p, Initial residual = 2.0015286e-06, Final residual = 1.6289262e-07, No Iterations 10
time step continuity errors : sum local = 7.3568859e-10, global = 1.0972129e-12, cumulative = -3.1780194e-07
DILUPBiCGStab:  Solving for nuTilda, Initial residual = 9.6850094e-07, Final residual = 3.4776031e-09, No Iterations 1
ExecutionTime = 117.4 s  ClockTime = 118 s

Time = 4415

DILUPBiCGStab:  Solving for Ux, Initial residual = 8.9129693e-07, Final residual = 1.4488645e-09, No Iterations 1
DILUPBiCGStab:  Solving for Uz, Initial residual = 1.0008209e-05, Final residual = 2.8734092e-09, No Iterations 2
GAMG:  Solving for p, Initial residual = 1.9963545e-06, Final residual = 1.7402307e-07, No Iterations 9
time step continuity errors : sum local = 7.8491299e-10, global = 3.2022445e-12, cumulative = -3.1779874e-07
DILUPBiCGStab:  Solving for nuTilda, Initial residual = 9.6716656e-07, Final residual = 3.4728057e-09, No Iterations 1
ExecutionTime = 117.43 s  ClockTime = 118 s

Time = 4416

DILUPBiCGStab:  Solving for Ux, Initial residual = 8.9006832e-07, Final residual = 1.4459181e-09, No Iterations 1
DILUPBiCGStab:  Solving for Uz, Initial residual = 9.9988696e-06, Final residual = 2.8691319e-09, No Iterations 2
GAMG:  Solving for p, Initial residual = 1.9956206e-06, Final residual = 1.5817248e-07, No Iterations 9
time step continuity errors : sum local = 7.1493934e-10, global = 1.2910235e-12, cumulative = -3.1779745e-07
DILUPBiCGStab:  Solving for nuTilda, Initial residual = 9.6583485e-07, Final residual = 3.468023e-09, No Iterations 1
ExecutionTime = 117.46 s  ClockTime = 118 s


SIMPLE solution converged in 4416 iterations

writeCellCentres writeCellCentres write:
    writing cell-volumes field C to 4416
    Writing the x component field of the cell-centres Cx to 4416
    Writing the y component field of the cell-centres Cy to 4416
    Writing the z component field of the cell-centres Cz to 4416
wallShearStress wallShearStress write:
    writing field wallShearStress
    min/max(bottom) = (-0.060210625 0 -4.2185125e-11), (-0.044819313 0 0.0036249107)
    min/max(top) = (-0.060210625 0 -0.0036249107), (-0.044819341 0 4.2191244e-11)
End

Finalising parallel run
