/*---------------------------------------------------------------------------*\
| =========                 |                                                 |
| \\      /  F ield         | OpenFOAM: The Open Source CFD Toolbox           |
|  \\    /   O peration     | Version:  2112                                  |
|   \\  /    A nd           | Website:  www.openfoam.com                      |
|    \\/     M anipulation  |                                                 |
\*---------------------------------------------------------------------------*/
Build  : _6e1fca0e-20220610 OPENFOAM=2112 patch=220610 version=2112
Arch   : "LSB;label=32;scalar=64"
Exec   : simpleFoam -parallel
Date   : Jul 14 2022
Time   : 08:58:15
Host   : instance-20220711-1435
PID    : 76543
I/O    : uncollated
Case   : /home/ubuntu/OpenFOAM/turbModels/challenge/2DWMH/hf
nProcs : 128
Hosts  :
(
    (instance-20220711-1435 128)
)
Pstream initialized with:
    floatTransfer      : 0
    nProcsSimpleSum    : 0
    commsType          : nonBlocking
    polling iterations : 0
trapFpe: Floating point exception trapping enabled (FOAM_SIGFPE).
fileModificationChecking : Monitoring run-time modified files using timeStampMaster (fileModificationSkew 5, maxFileModificationPolls 20)
allowSystemOperations : Allowing user-supplied system call operations

// * * * * * * * * * * * * * * * * * * * * * * * * * * * * * * * * * * * * * //
Create time

Create mesh for time = 0


SIMPLE: convergence criteria
    field p	 tolerance 1e-05
    field U	 tolerance 1e-05
    field "(k|epsilon|omega|nuTilda|phit|f)"	 tolerance 1e-05

Reading field p

Reading field U

Reading/calculating face flux field phi

Selecting incompressible transport model Newtonian
Selecting turbulence model type RAS
Selecting RAS turbulence model SpalartAllmaras
Selecting patchDistMethod meshWave
RAS
{
    RASModel        SpalartAllmaras;
    turbulence      on;
    printCoeffs     on;
    sigmaNut        0.66666667;
    kappa           0.41;
    Cb1             0.1355;
    Cb2             0.622;
    Cw2             0.3;
    Cw3             2;
    Cv1             7.1;
    Cs              0.3;
}

No MRF models present

No finite volume options present

Starting time loop

pressure pressure1:
    Operating mode: staticCoeff
    Not including hydrostatic effects

turbulenceFields turbulenceFields1: storing fields:
    turbulenceProperties:R

wallShearStress wallShearStress:
    processing all wall patches

Time = 1

DILUPBiCGStab:  Solving for Ux, Initial residual = 1, Final residual = 4.0741784e-09, No Iterations 8
DILUPBiCGStab:  Solving for Uz, Initial residual = 1, Final residual = 7.2872985e-09, No Iterations 7
GAMG:  Solving for p, Initial residual = 1, Final residual = 0.087277142, No Iterations 23
time step continuity errors : sum local = 0.02646843, global = -0.0035017452, cumulative = -0.0035017452
DILUPBiCGStab:  Solving for nuTilda, Initial residual = 1, Final residual = 5.907634e-09, No Iterations 5
ExecutionTime = 0.2 s  ClockTime = 0 s

Time = 2

DILUPBiCGStab:  Solving for Ux, Initial residual = 0.24542113, Final residual = 7.7475945e-09, No Iterations 11
DILUPBiCGStab:  Solving for Uz, Initial residual = 0.28520871, Final residual = 7.3652752e-09, No Iterations 12
GAMG:  Solving for p, Initial residual = 0.18436124, Final residual = 0.015680774, No Iterations 6
time step continuity errors : sum local = 0.28495723, global = -0.034188475, cumulative = -0.03769022
DILUPBiCGStab:  Solving for nuTilda, Initial residual = 0.17957683, Final residual = 4.8766677e-09, No Iterations 5
ExecutionTime = 0.23 s  ClockTime = 0 s

Time = 3

DILUPBiCGStab:  Solving for Ux, Initial residual = 0.08575064, Final residual = 2.1185558e-09, No Iterations 13
DILUPBiCGStab:  Solving for Uz, Initial residual = 0.11490056, Final residual = 8.1944879e-09, No Iterations 13
GAMG:  Solving for p, Initial residual = 0.14856629, Final residual = 0.013567425, No Iterations 6
time step continuity errors : sum local = 0.16228214, global = 0.022007788, cumulative = -0.015682433
DILUPBiCGStab:  Solving for nuTilda, Initial residual = 0.090460435, Final residual = 8.2131283e-09, No Iterations 5
ExecutionTime = 0.26 s  ClockTime = 0 s

Time = 4

DILUPBiCGStab:  Solving for Ux, Initial residual = 0.039795568, Final residual = 4.5830631e-09, No Iterations 12
DILUPBiCGStab:  Solving for Uz, Initial residual = 0.044158514, Final residual = 7.8351876e-09, No Iterations 11
GAMG:  Solving for p, Initial residual = 0.19487856, Final residual = 0.018855433, No Iterations 6
time step continuity errors : sum local = 0.10955214, global = 0.014290265, cumulative = -0.0013921672
DILUPBiCGStab:  Solving for nuTilda, Initial residual = 0.068877019, Final residual = 6.9004814e-09, No Iterations 5
ExecutionTime = 0.28 s  ClockTime = 0 s

Time = 5

DILUPBiCGStab:  Solving for Ux, Initial residual = 0.037817295, Final residual = 9.5435947e-09, No Iterations 10
DILUPBiCGStab:  Solving for Uz, Initial residual = 0.050954451, Final residual = 9.2875671e-09, No Iterations 11
GAMG:  Solving for p, Initial residual = 0.1380886, Final residual = 0.01211126, No Iterations 6
time step continuity errors : sum local = 0.07611942, global = -0.0079621926, cumulative = -0.0093543598
DILUPBiCGStab:  Solving for nuTilda, Initial residual = 0.05788179, Final residual = 1.8806587e-09, No Iterations 5
ExecutionTime = 0.31 s  ClockTime = 0 s

Time = 6

DILUPBiCGStab:  Solving for Ux, Initial residual = 0.028832776, Final residual = 3.41556e-09, No Iterations 11
DILUPBiCGStab:  Solving for Uz, Initial residual = 0.045513635, Final residual = 3.8262526e-09, No Iterations 11
GAMG:  Solving for p, Initial residual = 0.20701892, Final residual = 0.015034119, No Iterations 6
time step continuity errors : sum local = 0.056701001, global = -0.0046093377, cumulative = -0.013963698
DILUPBiCGStab:  Solving for nuTilda, Initial residual = 0.048366611, Final residual = 1.7229778e-09, No Iterations 5
ExecutionTime = 0.33 s  ClockTime = 0 s

Time = 7

DILUPBiCGStab:  Solving for Ux, Initial residual = 0.021435593, Final residual = 6.6400282e-09, No Iterations 10
DILUPBiCGStab:  Solving for Uz, Initial residual = 0.03061863, Final residual = 7.2748899e-09, No Iterations 10
GAMG:  Solving for p, Initial residual = 0.12396711, Final residual = 0.0097574826, No Iterations 6
time step continuity errors : sum local = 0.051512748, global = -0.0058249669, cumulative = -0.019788664
DILUPBiCGStab:  Solving for nuTilda, Initial residual = 0.041380875, Final residual = 1.5231893e-09, No Iterations 5
ExecutionTime = 0.36 s  ClockTime = 0 s

Time = 8

DILUPBiCGStab:  Solving for Ux, Initial residual = 0.017593429, Final residual = 9.1778961e-09, No Iterations 10
DILUPBiCGStab:  Solving for Uz, Initial residual = 0.027170706, Final residual = 6.2559535e-09, No Iterations 10
GAMG:  Solving for p, Initial residual = 0.26604115, Final residual = 0.024436048, No Iterations 4
time step continuity errors : sum local = 0.054848021, global = 0.002188715, cumulative = -0.017599949
DILUPBiCGStab:  Solving for nuTilda, Initial residual = 0.036006336, Final residual = 8.5600273e-09, No Iterations 5
ExecutionTime = 0.37 s  ClockTime = 0 s

Time = 9

DILUPBiCGStab:  Solving for Ux, Initial residual = 0.017367152, Final residual = 7.2971582e-09, No Iterations 10
DILUPBiCGStab:  Solving for Uz, Initial residual = 0.022522666, Final residual = 3.8496323e-09, No Iterations 11
GAMG:  Solving for p, Initial residual = 0.18625056, Final residual = 0.014824766, No Iterations 5
time step continuity errors : sum local = 0.044069238, global = -0.002085879, cumulative = -0.019685828
DILUPBiCGStab:  Solving for nuTilda, Initial residual = 0.031750375, Final residual = 5.8301406e-09, No Iterations 5
ExecutionTime = 0.39 s  ClockTime = 0 s

Time = 10

DILUPBiCGStab:  Solving for Ux, Initial residual = 0.013675843, Final residual = 6.6520341e-09, No Iterations 10
DILUPBiCGStab:  Solving for Uz, Initial residual = 0.02327255, Final residual = 9.9207747e-09, No Iterations 10
GAMG:  Solving for p, Initial residual = 0.19097992, Final residual = 0.013228914, No Iterations 5
time step continuity errors : sum local = 0.036850446, global = -0.0042344169, cumulative = -0.023920245
DILUPBiCGStab:  Solving for nuTilda, Initial residual = 0.028296147, Final residual = 3.9740928e-09, No Iterations 5
ExecutionTime = 0.41 s  ClockTime = 0 s

Time = 11

DILUPBiCGStab:  Solving for Ux, Initial residual = 0.012536268, Final residual = 8.8411786e-09, No Iterations 10
DILUPBiCGStab:  Solving for Uz, Initial residual = 0.020870368, Final residual = 3.0189955e-09, No Iterations 11
GAMG:  Solving for p, Initial residual = 0.095916567, Final residual = 0.008811343, No Iterations 4
time step continuity errors : sum local = 0.045994248, global = 0.002661362, cumulative = -0.021258883
DILUPBiCGStab:  Solving for nuTilda, Initial residual = 0.025412122, Final residual = 3.3617282e-09, No Iterations 5
ExecutionTime = 0.43 s  ClockTime = 0 s

Time = 12

DILUPBiCGStab:  Solving for Ux, Initial residual = 0.012211938, Final residual = 9.2468726e-09, No Iterations 10
DILUPBiCGStab:  Solving for Uz, Initial residual = 0.02207045, Final residual = 4.8845207e-09, No Iterations 11
GAMG:  Solving for p, Initial residual = 0.12818163, Final residual = 0.01075621, No Iterations 4
time step continuity errors : sum local = 0.040860712, global = 0.00020779188, cumulative = -0.021051091
DILUPBiCGStab:  Solving for nuTilda, Initial residual = 0.022950436, Final residual = 9.9060942e-09, No Iterations 4
ExecutionTime = 0.44 s  ClockTime = 0 s

Time = 13

DILUPBiCGStab:  Solving for Ux, Initial residual = 0.010766816, Final residual = 7.2724476e-09, No Iterations 10
DILUPBiCGStab:  Solving for Uz, Initial residual = 0.021767446, Final residual = 8.5182064e-09, No Iterations 10
GAMG:  Solving for p, Initial residual = 0.098377093, Final residual = 0.0080737272, No Iterations 4
time step continuity errors : sum local = 0.038435837, global = 0.0015003821, cumulative = -0.019550709
DILUPBiCGStab:  Solving for nuTilda, Initial residual = 0.02082151, Final residual = 8.8554769e-09, No Iterations 4
ExecutionTime = 0.46 s  ClockTime = 0 s

Time = 14

DILUPBiCGStab:  Solving for Ux, Initial residual = 0.010593866, Final residual = 8.3742913e-09, No Iterations 9
DILUPBiCGStab:  Solving for Uz, Initial residual = 0.021606195, Final residual = 8.5713698e-09, No Iterations 10
GAMG:  Solving for p, Initial residual = 0.12001554, Final residual = 0.0099494101, No Iterations 4
time step continuity errors : sum local = 0.038083688, global = -0.0029647022, cumulative = -0.022515412
DILUPBiCGStab:  Solving for nuTilda, Initial residual = 0.018947203, Final residual = 7.8304061e-09, No Iterations 4
ExecutionTime = 0.47 s  ClockTime = 0 s

Time = 15

DILUPBiCGStab:  Solving for Ux, Initial residual = 0.0097443948, Final residual = 3.7435815e-09, No Iterations 10
DILUPBiCGStab:  Solving for Uz, Initial residual = 0.021916547, Final residual = 7.5320432e-09, No Iterations 10
GAMG:  Solving for p, Initial residual = 0.099462901, Final residual = 0.0088021103, No Iterations 5
time step continuity errors : sum local = 0.039900085, global = -0.0052425443, cumulative = -0.027757956
DILUPBiCGStab:  Solving for nuTilda, Initial residual = 0.017302753, Final residual = 7.6899384e-09, No Iterations 4
ExecutionTime = 0.5 s  ClockTime = 0 s

Time = 16

DILUPBiCGStab:  Solving for Ux, Initial residual = 0.0096579288, Final residual = 7.2421689e-09, No Iterations 9
DILUPBiCGStab:  Solving for Uz, Initial residual = 0.022931929, Final residual = 6.7062736e-09, No Iterations 10
GAMG:  Solving for p, Initial residual = 0.21807293, Final residual = 0.01696474, No Iterations 4
time step continuity errors : sum local = 0.035035964, global = -0.0015038435, cumulative = -0.029261799
DILUPBiCGStab:  Solving for nuTilda, Initial residual = 0.015841063, Final residual = 6.9223396e-09, No Iterations 4
ExecutionTime = 0.51 s  ClockTime = 0 s

Time = 17

DILUPBiCGStab:  Solving for Ux, Initial residual = 0.0093004653, Final residual = 8.2426839e-09, No Iterations 9
DILUPBiCGStab:  Solving for Uz, Initial residual = 0.022833543, Final residual = 6.4673986e-09, No Iterations 10
GAMG:  Solving for p, Initial residual = 0.17148323, Final residual = 0.015770687, No Iterations 3
time step continuity errors : sum local = 0.040142423, global = -0.001142143, cumulative = -0.030403942
DILUPBiCGStab:  Solving for nuTilda, Initial residual = 0.014553386, Final residual = 6.3139262e-09, No Iterations 4
ExecutionTime = 0.53 s  ClockTime = 0 s

Time = 18

DILUPBiCGStab:  Solving for Ux, Initial residual = 0.0085168236, Final residual = 5.1418527e-09, No Iterations 9
DILUPBiCGStab:  Solving for Uz, Initial residual = 0.021915591, Final residual = 6.4011222e-09, No Iterations 10
GAMG:  Solving for p, Initial residual = 0.18124386, Final residual = 0.01719918, No Iterations 3
time step continuity errors : sum local = 0.040399606, global = 0.0024537201, cumulative = -0.027950222
DILUPBiCGStab:  Solving for nuTilda, Initial residual = 0.0134015, Final residual = 6.1150174e-09, No Iterations 4
ExecutionTime = 0.54 s  ClockTime = 0 s

Time = 19

DILUPBiCGStab:  Solving for Ux, Initial residual = 0.0077404617, Final residual = 5.1301872e-09, No Iterations 9
DILUPBiCGStab:  Solving for Uz, Initial residual = 0.020194737, Final residual = 9.4150562e-09, No Iterations 10
GAMG:  Solving for p, Initial residual = 0.17779052, Final residual = 0.015491534, No Iterations 3
time step continuity errors : sum local = 0.035734072, global = -0.0013322973, cumulative = -0.02928252
DILUPBiCGStab:  Solving for nuTilda, Initial residual = 0.012385209, Final residual = 6.4154186e-09, No Iterations 4
ExecutionTime = 0.55 s  ClockTime = 0 s

Time = 20

DILUPBiCGStab:  Solving for Ux, Initial residual = 0.0069327512, Final residual = 8.4505806e-09, No Iterations 9
DILUPBiCGStab:  Solving for Uz, Initial residual = 0.020112172, Final residual = 8.4468293e-09, No Iterations 10
GAMG:  Solving for p, Initial residual = 0.12063651, Final residual = 0.0088625914, No Iterations 3
time step continuity errors : sum local = 0.029039267, global = 0.00074500052, cumulative = -0.028537519
DILUPBiCGStab:  Solving for nuTilda, Initial residual = 0.011479104, Final residual = 6.3924582e-09, No Iterations 4
ExecutionTime = 0.57 s  ClockTime = 0 s

Time = 21

DILUPBiCGStab:  Solving for Ux, Initial residual = 0.0069118166, Final residual = 3.2975535e-09, No Iterations 10
DILUPBiCGStab:  Solving for Uz, Initial residual = 0.019841626, Final residual = 8.7998967e-09, No Iterations 10
GAMG:  Solving for p, Initial residual = 0.12084697, Final residual = 0.0089600007, No Iterations 3
time step continuity errors : sum local = 0.028924999, global = 0.0015608106, cumulative = -0.026976708
DILUPBiCGStab:  Solving for nuTilda, Initial residual = 0.010668009, Final residual = 6.0673468e-09, No Iterations 4
ExecutionTime = 0.58 s  ClockTime = 0 s

Time = 22

DILUPBiCGStab:  Solving for Ux, Initial residual = 0.006305547, Final residual = 4.3036948e-09, No Iterations 10
DILUPBiCGStab:  Solving for Uz, Initial residual = 0.019436415, Final residual = 5.3809589e-09, No Iterations 10
GAMG:  Solving for p, Initial residual = 0.11970408, Final residual = 0.0095071308, No Iterations 3
time step continuity errors : sum local = 0.030417705, global = 0.00075846686, cumulative = -0.026218242
DILUPBiCGStab:  Solving for nuTilda, Initial residual = 0.0099437097, Final residual = 7.0208612e-09, No Iterations 4
ExecutionTime = 0.59 s  ClockTime = 0 s

Time = 23

DILUPBiCGStab:  Solving for Ux, Initial residual = 0.0062432038, Final residual = 6.3946645e-09, No Iterations 10
DILUPBiCGStab:  Solving for Uz, Initial residual = 0.019018299, Final residual = 6.6038551e-09, No Iterations 10
GAMG:  Solving for p, Initial residual = 0.11924931, Final residual = 0.009749455, No Iterations 3
time step continuity errors : sum local = 0.030863791, global = -0.00019198589, cumulative = -0.026410227
DILUPBiCGStab:  Solving for nuTilda, Initial residual = 0.0092943091, Final residual = 8.0095906e-09, No Iterations 4
ExecutionTime = 0.6 s  ClockTime = 0 s

Time = 24

DILUPBiCGStab:  Solving for Ux, Initial residual = 0.0059038345, Final residual = 6.7955999e-09, No Iterations 10
DILUPBiCGStab:  Solving for Uz, Initial residual = 0.018792418, Final residual = 8.3780103e-09, No Iterations 11
GAMG:  Solving for p, Initial residual = 0.11355323, Final residual = 0.0097634328, No Iterations 3
time step continuity errors : sum local = 0.031041061, global = -2.6463635e-05, cumulative = -0.026436691
DILUPBiCGStab:  Solving for nuTilda, Initial residual = 0.0087065426, Final residual = 3.0489971e-09, No Iterations 5
ExecutionTime = 0.61 s  ClockTime = 1 s

Time = 25

DILUPBiCGStab:  Solving for Ux, Initial residual = 0.0057066034, Final residual = 7.1923304e-09, No Iterations 10
DILUPBiCGStab:  Solving for Uz, Initial residual = 0.018260338, Final residual = 6.84438e-09, No Iterations 11
GAMG:  Solving for p, Initial residual = 0.10968212, Final residual = 0.0092823544, No Iterations 3
time step continuity errors : sum local = 0.029589764, global = -0.00032038413, cumulative = -0.026757075
DILUPBiCGStab:  Solving for nuTilda, Initial residual = 0.0081748097, Final residual = 3.1187331e-09, No Iterations 5
ExecutionTime = 0.62 s  ClockTime = 1 s

Time = 26

DILUPBiCGStab:  Solving for Ux, Initial residual = 0.0055254656, Final residual = 8.8237504e-09, No Iterations 9
DILUPBiCGStab:  Solving for Uz, Initial residual = 0.01805726, Final residual = 6.3134963e-09, No Iterations 11
GAMG:  Solving for p, Initial residual = 0.10422556, Final residual = 0.0083485935, No Iterations 3
time step continuity errors : sum local = 0.027011747, global = 0.0007882952, cumulative = -0.02596878
DILUPBiCGStab:  Solving for nuTilda, Initial residual = 0.0076962711, Final residual = 3.4037372e-09, No Iterations 5
ExecutionTime = 0.63 s  ClockTime = 1 s

Time = 27

DILUPBiCGStab:  Solving for Ux, Initial residual = 0.0052114565, Final residual = 6.107923e-09, No Iterations 10
DILUPBiCGStab:  Solving for Uz, Initial residual = 0.017429145, Final residual = 7.331864e-09, No Iterations 11
GAMG:  Solving for p, Initial residual = 0.10182324, Final residual = 0.0088282497, No Iterations 3
time step continuity errors : sum local = 0.028478063, global = -0.00042196495, cumulative = -0.026390745
DILUPBiCGStab:  Solving for nuTilda, Initial residual = 0.0072677771, Final residual = 3.8406731e-09, No Iterations 5
ExecutionTime = 0.64 s  ClockTime = 1 s

Time = 28

DILUPBiCGStab:  Solving for Ux, Initial residual = 0.0052266155, Final residual = 7.5015645e-09, No Iterations 10
DILUPBiCGStab:  Solving for Uz, Initial residual = 0.017029634, Final residual = 8.8628096e-09, No Iterations 11
GAMG:  Solving for p, Initial residual = 0.098534363, Final residual = 0.0079387536, No Iterations 3
time step continuity errors : sum local = 0.026021089, global = 0.00030763258, cumulative = -0.026083112
DILUPBiCGStab:  Solving for nuTilda, Initial residual = 0.0068785545, Final residual = 1.9265983e-10, No Iterations 6
ExecutionTime = 0.65 s  ClockTime = 1 s

Time = 29

DILUPBiCGStab:  Solving for Ux, Initial residual = 0.0048435137, Final residual = 8.5574201e-09, No Iterations 10
DILUPBiCGStab:  Solving for Uz, Initial residual = 0.016693767, Final residual = 7.3719413e-09, No Iterations 11
GAMG:  Solving for p, Initial residual = 0.095983049, Final residual = 0.0076261895, No Iterations 3
time step continuity errors : sum local = 0.025008009, global = -0.00036981386, cumulative = -0.026452926
DILUPBiCGStab:  Solving for nuTilda, Initial residual = 0.0065306566, Final residual = 4.7104539e-09, No Iterations 5
ExecutionTime = 0.66 s  ClockTime = 1 s

Time = 30

DILUPBiCGStab:  Solving for Ux, Initial residual = 0.0049641427, Final residual = 2.1655064e-09, No Iterations 11
DILUPBiCGStab:  Solving for Uz, Initial residual = 0.016070868, Final residual = 9.354587e-09, No Iterations 11
GAMG:  Solving for p, Initial residual = 0.093626011, Final residual = 0.0075593531, No Iterations 3
time step continuity errors : sum local = 0.024687037, global = -0.00034736943, cumulative = -0.026800296
DILUPBiCGStab:  Solving for nuTilda, Initial residual = 0.0062143254, Final residual = 3.4019752e-09, No Iterations 5
ExecutionTime = 0.68 s  ClockTime = 1 s

Time = 31

DILUPBiCGStab:  Solving for Ux, Initial residual = 0.0046037768, Final residual = 7.1855111e-09, No Iterations 10
DILUPBiCGStab:  Solving for Uz, Initial residual = 0.016289621, Final residual = 7.2416455e-09, No Iterations 11
GAMG:  Solving for p, Initial residual = 0.08976325, Final residual = 0.007389305, No Iterations 3
time step continuity errors : sum local = 0.024180732, global = -0.00095232941, cumulative = -0.027752625
DILUPBiCGStab:  Solving for nuTilda, Initial residual = 0.005928027, Final residual = 3.7837852e-09, No Iterations 5
ExecutionTime = 0.69 s  ClockTime = 1 s

Time = 32

DILUPBiCGStab:  Solving for Ux, Initial residual = 0.0046885123, Final residual = 7.9164698e-09, No Iterations 9
DILUPBiCGStab:  Solving for Uz, Initial residual = 0.01554536, Final residual = 6.0411359e-09, No Iterations 11
GAMG:  Solving for p, Initial residual = 0.087324834, Final residual = 0.0075574907, No Iterations 3
time step continuity errors : sum local = 0.024546608, global = -0.00065525782, cumulative = -0.028407883
DILUPBiCGStab:  Solving for nuTilda, Initial residual = 0.0056624338, Final residual = 5.0093291e-09, No Iterations 5
ExecutionTime = 0.7 s  ClockTime = 1 s

Time = 33

DILUPBiCGStab:  Solving for Ux, Initial residual = 0.0044351803, Final residual = 7.6646966e-09, No Iterations 9
DILUPBiCGStab:  Solving for Uz, Initial residual = 0.016046146, Final residual = 6.9539077e-09, No Iterations 11
GAMG:  Solving for p, Initial residual = 0.084583147, Final residual = 0.0072790112, No Iterations 3
time step continuity errors : sum local = 0.023810216, global = -0.0012387943, cumulative = -0.029646677
DILUPBiCGStab:  Solving for nuTilda, Initial residual = 0.0054188563, Final residual = 5.6197968e-09, No Iterations 5
ExecutionTime = 0.71 s  ClockTime = 1 s

Time = 34

DILUPBiCGStab:  Solving for Ux, Initial residual = 0.0044285678, Final residual = 9.7174144e-09, No Iterations 9
DILUPBiCGStab:  Solving for Uz, Initial residual = 0.015203467, Final residual = 5.6979445e-09, No Iterations 11
GAMG:  Solving for p, Initial residual = 0.083562624, Final residual = 0.0076903957, No Iterations 3
time step continuity errors : sum local = 0.025018833, global = -0.00031201752, cumulative = -0.029958695
DILUPBiCGStab:  Solving for nuTilda, Initial residual = 0.0051950736, Final residual = 5.6610604e-09, No Iterations 5
ExecutionTime = 0.72 s  ClockTime = 1 s

Time = 35

DILUPBiCGStab:  Solving for Ux, Initial residual = 0.0042851689, Final residual = 3.3805884e-09, No Iterations 11
DILUPBiCGStab:  Solving for Uz, Initial residual = 0.015696331, Final residual = 6.5824214e-09, No Iterations 11
GAMG:  Solving for p, Initial residual = 0.08293443, Final residual = 0.0070667691, No Iterations 3
time step continuity errors : sum local = 0.02316007, global = -0.0011475642, cumulative = -0.031106259
DILUPBiCGStab:  Solving for nuTilda, Initial residual = 0.004990608, Final residual = 3.0090931e-09, No Iterations 5
ExecutionTime = 0.73 s  ClockTime = 1 s

Time = 36

DILUPBiCGStab:  Solving for Ux, Initial residual = 0.0042078547, Final residual = 6.9183161e-09, No Iterations 10
DILUPBiCGStab:  Solving for Uz, Initial residual = 0.015068473, Final residual = 4.1072169e-09, No Iterations 12
GAMG:  Solving for p, Initial residual = 0.08193649, Final residual = 0.0074414474, No Iterations 3
time step continuity errors : sum local = 0.024415995, global = -0.00057258542, cumulative = -0.031678844
DILUPBiCGStab:  Solving for nuTilda, Initial residual = 0.0048011145, Final residual = 7.5289972e-09, No Iterations 5
ExecutionTime = 0.74 s  ClockTime = 1 s

Time = 37

DILUPBiCGStab:  Solving for Ux, Initial residual = 0.0041637987, Final residual = 9.8925813e-09, No Iterations 9
DILUPBiCGStab:  Solving for Uz, Initial residual = 0.015291329, Final residual = 5.9345019e-09, No Iterations 11
GAMG:  Solving for p, Initial residual = 0.08133532, Final residual = 0.0069768396, No Iterations 3
time step continuity errors : sum local = 0.022845255, global = -0.0011390667, cumulative = -0.032817911
DILUPBiCGStab:  Solving for nuTilda, Initial residual = 0.0046280466, Final residual = 2.2656491e-10, No Iterations 6
ExecutionTime = 0.76 s  ClockTime = 1 s

Time = 38

DILUPBiCGStab:  Solving for Ux, Initial residual = 0.0040049226, Final residual = 8.9290564e-09, No Iterations 9
DILUPBiCGStab:  Solving for Uz, Initial residual = 0.015290503, Final residual = 7.9760456e-09, No Iterations 11
GAMG:  Solving for p, Initial residual = 0.078347294, Final residual = 0.0069120587, No Iterations 3
time step continuity errors : sum local = 0.022828242, global = -0.0014285089, cumulative = -0.03424642
DILUPBiCGStab:  Solving for nuTilda, Initial residual = 0.0044678914, Final residual = 3.8326939e-09, No Iterations 5
ExecutionTime = 0.77 s  ClockTime = 1 s

Time = 39

DILUPBiCGStab:  Solving for Ux, Initial residual = 0.0040435829, Final residual = 6.8958921e-09, No Iterations 9
DILUPBiCGStab:  Solving for Uz, Initial residual = 0.015032573, Final residual = 7.2662801e-09, No Iterations 11
GAMG:  Solving for p, Initial residual = 0.07794793, Final residual = 0.0068144608, No Iterations 4
time step continuity errors : sum local = 0.022236142, global = -0.0040970338, cumulative = -0.038343454
DILUPBiCGStab:  Solving for nuTilda, Initial residual = 0.0043270797, Final residual = 2.8416952e-09, No Iterations 5
ExecutionTime = 0.78 s  ClockTime = 1 s

Time = 40

DILUPBiCGStab:  Solving for Ux, Initial residual = 0.0040604136, Final residual = 5.1519749e-09, No Iterations 10
DILUPBiCGStab:  Solving for Uz, Initial residual = 0.016052921, Final residual = 6.249787e-09, No Iterations 11
GAMG:  Solving for p, Initial residual = 0.09982771, Final residual = 0.0082906627, No Iterations 4
time step continuity errors : sum local = 0.021119422, global = -0.0021297067, cumulative = -0.04047316
DILUPBiCGStab:  Solving for nuTilda, Initial residual = 0.0041957482, Final residual = 8.4634653e-09, No Iterations 5
ExecutionTime = 0.8 s  ClockTime = 1 s

Time = 41

DILUPBiCGStab:  Solving for Ux, Initial residual = 0.0046077402, Final residual = 7.0959533e-09, No Iterations 10
DILUPBiCGStab:  Solving for Uz, Initial residual = 0.015718554, Final residual = 7.4149919e-09, No Iterations 11
GAMG:  Solving for p, Initial residual = 0.10157078, Final residual = 0.0095525989, No Iterations 3
time step continuity errors : sum local = 0.02393052, global = -0.00053071413, cumulative = -0.041003875
DILUPBiCGStab:  Solving for nuTilda, Initial residual = 0.0040705785, Final residual = 8.0932807e-09, No Iterations 5
ExecutionTime = 0.8 s  ClockTime = 1 s

Time = 42

DILUPBiCGStab:  Solving for Ux, Initial residual = 0.0038488505, Final residual = 8.7659939e-09, No Iterations 9
DILUPBiCGStab:  Solving for Uz, Initial residual = 0.016593832, Final residual = 9.8329849e-09, No Iterations 11
GAMG:  Solving for p, Initial residual = 0.10611649, Final residual = 0.010249536, No Iterations 4
time step continuity errors : sum local = 0.025437703, global = -0.002564225, cumulative = -0.0435681
DILUPBiCGStab:  Solving for nuTilda, Initial residual = 0.0039213635, Final residual = 2.2173735e-09, No Iterations 5
ExecutionTime = 0.82 s  ClockTime = 1 s

Time = 43

DILUPBiCGStab:  Solving for Ux, Initial residual = 0.0041189378, Final residual = 8.1036932e-09, No Iterations 9
DILUPBiCGStab:  Solving for Uz, Initial residual = 0.015420909, Final residual = 1.6582425e-09, No Iterations 12
GAMG:  Solving for p, Initial residual = 0.090154517, Final residual = 0.006367161, No Iterations 4
time step continuity errors : sum local = 0.018882749, global = -0.00033927822, cumulative = -0.043907378
DILUPBiCGStab:  Solving for nuTilda, Initial residual = 0.0037662311, Final residual = 6.9008249e-09, No Iterations 5
ExecutionTime = 0.83 s  ClockTime = 1 s

Time = 44

DILUPBiCGStab:  Solving for Ux, Initial residual = 0.0036910509, Final residual = 9.2474379e-09, No Iterations 9
DILUPBiCGStab:  Solving for Uz, Initial residual = 0.017418655, Final residual = 8.8511105e-09, No Iterations 10
GAMG:  Solving for p, Initial residual = 0.093059803, Final residual = 0.008634532, No Iterations 3
time step continuity errors : sum local = 0.024855753, global = 0.00088894533, cumulative = -0.043018432
DILUPBiCGStab:  Solving for nuTilda, Initial residual = 0.003620712, Final residual = 2.2181453e-09, No Iterations 5
ExecutionTime = 0.84 s  ClockTime = 1 s

Time = 45

DILUPBiCGStab:  Solving for Ux, Initial residual = 0.0039667137, Final residual = 8.7475714e-09, No Iterations 10
DILUPBiCGStab:  Solving for Uz, Initial residual = 0.016147997, Final residual = 9.7720256e-09, No Iterations 10
GAMG:  Solving for p, Initial residual = 0.090229923, Final residual = 0.0085467729, No Iterations 3
time step continuity errors : sum local = 0.025370983, global = 0.0005139381, cumulative = -0.042504494
DILUPBiCGStab:  Solving for nuTilda, Initial residual = 0.0034810204, Final residual = 2.0439035e-09, No Iterations 5
ExecutionTime = 0.86 s  ClockTime = 1 s

Time = 46

DILUPBiCGStab:  Solving for Ux, Initial residual = 0.0035499858, Final residual = 8.937783e-09, No Iterations 10
DILUPBiCGStab:  Solving for Uz, Initial residual = 0.016542251, Final residual = 8.1820304e-09, No Iterations 11
GAMG:  Solving for p, Initial residual = 0.09105272, Final residual = 0.0084905284, No Iterations 3
time step continuity errors : sum local = 0.024900746, global = 0.00074432957, cumulative = -0.041760165
DILUPBiCGStab:  Solving for nuTilda, Initial residual = 0.0033551884, Final residual = 2.1047648e-09, No Iterations 5
ExecutionTime = 0.87 s  ClockTime = 1 s

Time = 47

DILUPBiCGStab:  Solving for Ux, Initial residual = 0.0035348805, Final residual = 9.904951e-09, No Iterations 9
DILUPBiCGStab:  Solving for Uz, Initial residual = 0.01557017, Final residual = 8.4563879e-09, No Iterations 11
GAMG:  Solving for p, Initial residual = 0.08540205, Final residual = 0.0081029428, No Iterations 3
time step continuity errors : sum local = 0.024541151, global = 0.0011621789, cumulative = -0.040597986
DILUPBiCGStab:  Solving for nuTilda, Initial residual = 0.0032379777, Final residual = 6.9570068e-09, No Iterations 5
ExecutionTime = 0.88 s  ClockTime = 1 s

Time = 48

DILUPBiCGStab:  Solving for Ux, Initial residual = 0.0034706205, Final residual = 6.4298966e-09, No Iterations 9
DILUPBiCGStab:  Solving for Uz, Initial residual = 0.015487481, Final residual = 9.3348345e-09, No Iterations 10
GAMG:  Solving for p, Initial residual = 0.08440973, Final residual = 0.0077842895, No Iterations 3
time step continuity errors : sum local = 0.023440798, global = 0.0012835651, cumulative = -0.039314421
DILUPBiCGStab:  Solving for nuTilda, Initial residual = 0.0031341678, Final residual = 9.1151533e-09, No Iterations 5
ExecutionTime = 0.89 s  ClockTime = 1 s

Time = 49

DILUPBiCGStab:  Solving for Ux, Initial residual = 0.0031701915, Final residual = 6.1370642e-09, No Iterations 9
DILUPBiCGStab:  Solving for Uz, Initial residual = 0.014976842, Final residual = 9.8305046e-09, No Iterations 10
GAMG:  Solving for p, Initial residual = 0.082898849, Final residual = 0.0068421954, No Iterations 4
time step continuity errors : sum local = 0.020726106, global = 0.003111787, cumulative = -0.036202634
DILUPBiCGStab:  Solving for nuTilda, Initial residual = 0.0030412445, Final residual = 6.9595241e-09, No Iterations 5
ExecutionTime = 0.91 s  ClockTime = 1 s

Time = 50

DILUPBiCGStab:  Solving for Ux, Initial residual = 0.0034426246, Final residual = 7.3800876e-09, No Iterations 9
DILUPBiCGStab:  Solving for Uz, Initial residual = 0.01476917, Final residual = 2.467418e-09, No Iterations 12
GAMG:  Solving for p, Initial residual = 0.068378807, Final residual = 0.0068149502, No Iterations 3
time step continuity errors : sum local = 0.024640442, global = 0.00014871945, cumulative = -0.036053914
DILUPBiCGStab:  Solving for nuTilda, Initial residual = 0.0029624069, Final residual = 6.8269765e-09, No Iterations 5
ExecutionTime = 0.92 s  ClockTime = 1 s

Time = 51

DILUPBiCGStab:  Solving for Ux, Initial residual = 0.0032447731, Final residual = 3.80577e-09, No Iterations 10
DILUPBiCGStab:  Solving for Uz, Initial residual = 0.015145697, Final residual = 7.0277502e-09, No Iterations 11
GAMG:  Solving for p, Initial residual = 0.068138093, Final residual = 0.0063338357, No Iterations 3
time step continuity errors : sum local = 0.022651005, global = 0.00089993777, cumulative = -0.035153977
DILUPBiCGStab:  Solving for nuTilda, Initial residual = 0.0028880689, Final residual = 6.9593823e-09, No Iterations 5
ExecutionTime = 0.93 s  ClockTime = 1 s

Time = 52

DILUPBiCGStab:  Solving for Ux, Initial residual = 0.0033710649, Final residual = 3.426615e-09, No Iterations 10
DILUPBiCGStab:  Solving for Uz, Initial residual = 0.014036788, Final residual = 3.3249063e-09, No Iterations 12
GAMG:  Solving for p, Initial residual = 0.06541905, Final residual = 0.0046906107, No Iterations 4
time step continuity errors : sum local = 0.016861473, global = 4.8007247e-05, cumulative = -0.035105969
DILUPBiCGStab:  Solving for nuTilda, Initial residual = 0.0028243661, Final residual = 6.9893072e-09, No Iterations 5
ExecutionTime = 0.95 s  ClockTime = 1 s

Time = 53

DILUPBiCGStab:  Solving for Ux, Initial residual = 0.0029968558, Final residual = 3.7135574e-09, No Iterations 10
DILUPBiCGStab:  Solving for Uz, Initial residual = 0.014874094, Final residual = 1.946986e-09, No Iterations 12
GAMG:  Solving for p, Initial residual = 0.064253308, Final residual = 0.0062294279, No Iterations 3
time step continuity errors : sum local = 0.022109193, global = -0.0004935218, cumulative = -0.035599491
DILUPBiCGStab:  Solving for nuTilda, Initial residual = 0.0027660385, Final residual = 7.1126825e-09, No Iterations 5
ExecutionTime = 0.96 s  ClockTime = 1 s

Time = 54

DILUPBiCGStab:  Solving for Ux, Initial residual = 0.0033469499, Final residual = 3.0481363e-09, No Iterations 10
DILUPBiCGStab:  Solving for Uz, Initial residual = 0.013913142, Final residual = 1.508364e-09, No Iterations 12
GAMG:  Solving for p, Initial residual = 0.061647484, Final residual = 0.0056467461, No Iterations 3
time step continuity errors : sum local = 0.020364741, global = -0.00056219123, cumulative = -0.036161682
DILUPBiCGStab:  Solving for nuTilda, Initial residual = 0.002707929, Final residual = 7.2940471e-09, No Iterations 5
ExecutionTime = 0.97 s  ClockTime = 1 s

Time = 55

DILUPBiCGStab:  Solving for Ux, Initial residual = 0.0028445826, Final residual = 4.9631538e-09, No Iterations 10
DILUPBiCGStab:  Solving for Uz, Initial residual = 0.01398303, Final residual = 2.4031997e-09, No Iterations 11
GAMG:  Solving for p, Initial residual = 0.061371855, Final residual = 0.0047134196, No Iterations 4
time step continuity errors : sum local = 0.01688829, global = -0.0030176729, cumulative = -0.039179355
DILUPBiCGStab:  Solving for nuTilda, Initial residual = 0.0026595023, Final residual = 7.5130163e-09, No Iterations 5
ExecutionTime = 0.98 s  ClockTime = 1 s

Time = 56

DILUPBiCGStab:  Solving for Ux, Initial residual = 0.0029445159, Final residual = 5.846741e-09, No Iterations 10
DILUPBiCGStab:  Solving for Uz, Initial residual = 0.013397887, Final residual = 1.4097523e-09, No Iterations 12
GAMG:  Solving for p, Initial residual = 0.069865183, Final residual = 0.0064073368, No Iterations 3
time step continuity errors : sum local = 0.019896848, global = -0.00036130266, cumulative = -0.039540658
DILUPBiCGStab:  Solving for nuTilda, Initial residual = 0.002609885, Final residual = 7.7164756e-09, No Iterations 5
ExecutionTime = 1 s  ClockTime = 1 s

Time = 57

DILUPBiCGStab:  Solving for Ux, Initial residual = 0.0028458157, Final residual = 3.8910447e-09, No Iterations 10
DILUPBiCGStab:  Solving for Uz, Initial residual = 0.013728618, Final residual = 4.9148755e-09, No Iterations 11
GAMG:  Solving for p, Initial residual = 0.068397106, Final residual = 0.00602691, No Iterations 3
time step continuity errors : sum local = 0.018870127, global = -0.0013039632, cumulative = -0.040844621
DILUPBiCGStab:  Solving for nuTilda, Initial residual = 0.0025648691, Final residual = 5.9799847e-09, No Iterations 5
ExecutionTime = 1.01 s  ClockTime = 1 s

Time = 58

DILUPBiCGStab:  Solving for Ux, Initial residual = 0.0027226338, Final residual = 3.3621752e-09, No Iterations 10
DILUPBiCGStab:  Solving for Uz, Initial residual = 0.012861496, Final residual = 4.7008179e-09, No Iterations 11
GAMG:  Solving for p, Initial residual = 0.067504815, Final residual = 0.0067001288, No Iterations 3
time step continuity errors : sum local = 0.020732895, global = 1.7612868e-05, cumulative = -0.040827008
DILUPBiCGStab:  Solving for nuTilda, Initial residual = 0.0025180555, Final residual = 4.4531102e-09, No Iterations 5
ExecutionTime = 1.02 s  ClockTime = 1 s

Time = 59

DILUPBiCGStab:  Solving for Ux, Initial residual = 0.0026877733, Final residual = 9.1467226e-09, No Iterations 9
DILUPBiCGStab:  Solving for Uz, Initial residual = 0.012739461, Final residual = 4.7028562e-09, No Iterations 11
GAMG:  Solving for p, Initial residual = 0.065478803, Final residual = 0.005200922, No Iterations 4
time step continuity errors : sum local = 0.016004511, global = -0.001939091, cumulative = -0.042766099
DILUPBiCGStab:  Solving for nuTilda, Initial residual = 0.0024795937, Final residual = 5.6477955e-09, No Iterations 5
ExecutionTime = 1.03 s  ClockTime = 1 s

Time = 60

DILUPBiCGStab:  Solving for Ux, Initial residual = 0.0025647553, Final residual = 9.4967885e-09, No Iterations 9
DILUPBiCGStab:  Solving for Uz, Initial residual = 0.01255387, Final residual = 4.6736611e-09, No Iterations 11
GAMG:  Solving for p, Initial residual = 0.064643217, Final residual = 0.0047066753, No Iterations 4
time step continuity errors : sum local = 0.01398732, global = -0.00057726748, cumulative = -0.043343367
DILUPBiCGStab:  Solving for nuTilda, Initial residual = 0.002440852, Final residual = 8.2492813e-09, No Iterations 5
ExecutionTime = 1.04 s  ClockTime = 1 s

Time = 61

DILUPBiCGStab:  Solving for Ux, Initial residual = 0.0027061577, Final residual = 4.8413146e-09, No Iterations 10
DILUPBiCGStab:  Solving for Uz, Initial residual = 0.013055734, Final residual = 9.2998656e-09, No Iterations 10
GAMG:  Solving for p, Initial residual = 0.062698365, Final residual = 0.0059545817, No Iterations 3
time step continuity errors : sum local = 0.018004045, global = -0.00016602081, cumulative = -0.043509388
DILUPBiCGStab:  Solving for nuTilda, Initial residual = 0.0024030804, Final residual = 2.9791648e-09, No Iterations 5
ExecutionTime = 1.06 s  ClockTime = 1 s

Time = 62

DILUPBiCGStab:  Solving for Ux, Initial residual = 0.0024907014, Final residual = 7.5367508e-09, No Iterations 9
DILUPBiCGStab:  Solving for Uz, Initial residual = 0.012883215, Final residual = 7.5676529e-09, No Iterations 10
GAMG:  Solving for p, Initial residual = 0.063613431, Final residual = 0.0062405825, No Iterations 3
time step continuity errors : sum local = 0.018728872, global = 9.4797122e-05, cumulative = -0.04341459
DILUPBiCGStab:  Solving for nuTilda, Initial residual = 0.0023656578, Final residual = 4.3176195e-09, No Iterations 5
ExecutionTime = 1.07 s  ClockTime = 1 s

Time = 63

DILUPBiCGStab:  Solving for Ux, Initial residual = 0.0024984402, Final residual = 7.0847669e-09, No Iterations 9
DILUPBiCGStab:  Solving for Uz, Initial residual = 0.011972063, Final residual = 7.4808526e-09, No Iterations 10
GAMG:  Solving for p, Initial residual = 0.063817602, Final residual = 0.0056423097, No Iterations 3
time step continuity errors : sum local = 0.017036112, global = 0.00011002329, cumulative = -0.043304567
DILUPBiCGStab:  Solving for nuTilda, Initial residual = 0.0023301887, Final residual = 1.1213519e-09, No Iterations 6
ExecutionTime = 1.08 s  ClockTime = 1 s

Time = 64

DILUPBiCGStab:  Solving for Ux, Initial residual = 0.0023476611, Final residual = 9.7224727e-09, No Iterations 9
DILUPBiCGStab:  Solving for Uz, Initial residual = 0.011971791, Final residual = 7.4354401e-09, No Iterations 10
GAMG:  Solving for p, Initial residual = 0.061783983, Final residual = 0.0056694506, No Iterations 3
time step continuity errors : sum local = 0.017212205, global = -2.2982012e-06, cumulative = -0.043306865
DILUPBiCGStab:  Solving for nuTilda, Initial residual = 0.0022976264, Final residual = 6.0916083e-09, No Iterations 5
ExecutionTime = 1.09 s  ClockTime = 1 s

Time = 65

DILUPBiCGStab:  Solving for Ux, Initial residual = 0.0023532812, Final residual = 3.9401685e-09, No Iterations 10
DILUPBiCGStab:  Solving for Uz, Initial residual = 0.011222872, Final residual = 9.3133681e-09, No Iterations 10
GAMG:  Solving for p, Initial residual = 0.059779741, Final residual = 0.0053777506, No Iterations 3
time step continuity errors : sum local = 0.016327948, global = 0.000496567, cumulative = -0.042810298
DILUPBiCGStab:  Solving for nuTilda, Initial residual = 0.0022659001, Final residual = 1.7774468e-09, No Iterations 5
ExecutionTime = 1.1 s  ClockTime = 1 s

Time = 66

DILUPBiCGStab:  Solving for Ux, Initial residual = 0.0022582828, Final residual = 3.1964881e-09, No Iterations 10
DILUPBiCGStab:  Solving for Uz, Initial residual = 0.011512362, Final residual = 8.3169409e-09, No Iterations 10
GAMG:  Solving for p, Initial residual = 0.056638966, Final residual = 0.0052407464, No Iterations 3
time step continuity errors : sum local = 0.016043594, global = 0.00034521079, cumulative = -0.042465087
DILUPBiCGStab:  Solving for nuTilda, Initial residual = 0.0022378665, Final residual = 8.2657819e-09, No Iterations 5
ExecutionTime = 1.11 s  ClockTime = 1 s

Time = 67

DILUPBiCGStab:  Solving for Ux, Initial residual = 0.0022675805, Final residual = 3.2112209e-09, No Iterations 10
DILUPBiCGStab:  Solving for Uz, Initial residual = 0.010723491, Final residual = 7.7267418e-09, No Iterations 10
GAMG:  Solving for p, Initial residual = 0.054559981, Final residual = 0.0052467808, No Iterations 3
time step continuity errors : sum local = 0.016047693, global = 0.00026065624, cumulative = -0.042204431
DILUPBiCGStab:  Solving for nuTilda, Initial residual = 0.0022102086, Final residual = 5.7719555e-10, No Iterations 6
ExecutionTime = 1.12 s  ClockTime = 1 s

Time = 68

DILUPBiCGStab:  Solving for Ux, Initial residual = 0.0021700273, Final residual = 3.423005e-09, No Iterations 10
DILUPBiCGStab:  Solving for Uz, Initial residual = 0.010892509, Final residual = 8.8657754e-09, No Iterations 10
GAMG:  Solving for p, Initial residual = 0.052117937, Final residual = 0.0048972824, No Iterations 3
time step continuity errors : sum local = 0.01519568, global = 0.00061165239, cumulative = -0.041592779
DILUPBiCGStab:  Solving for nuTilda, Initial residual = 0.0021871701, Final residual = 4.0195276e-09, No Iterations 5
ExecutionTime = 1.13 s  ClockTime = 1 s

Time = 69

DILUPBiCGStab:  Solving for Ux, Initial residual = 0.0021758554, Final residual = 6.6986492e-09, No Iterations 9
DILUPBiCGStab:  Solving for Uz, Initial residual = 0.010331846, Final residual = 9.0916837e-09, No Iterations 10
GAMG:  Solving for p, Initial residual = 0.051160371, Final residual = 0.004866012, No Iterations 3
time step continuity errors : sum local = 0.015099458, global = 0.00060635735, cumulative = -0.040986422
DILUPBiCGStab:  Solving for nuTilda, Initial residual = 0.0021649521, Final residual = 3.8610957e-09, No Iterations 5
ExecutionTime = 1.14 s  ClockTime = 1 s

Time = 70

DILUPBiCGStab:  Solving for Ux, Initial residual = 0.0020914506, Final residual = 6.4160835e-09, No Iterations 9
DILUPBiCGStab:  Solving for Uz, Initial residual = 0.01016965, Final residual = 8.3930503e-09, No Iterations 10
GAMG:  Solving for p, Initial residual = 0.050622113, Final residual = 0.0047601033, No Iterations 3
time step continuity errors : sum local = 0.014825907, global = 0.000796585, cumulative = -0.040189837
DILUPBiCGStab:  Solving for nuTilda, Initial residual = 0.0021462345, Final residual = 4.1816401e-09, No Iterations 5
ExecutionTime = 1.15 s  ClockTime = 1 s

Time = 71

DILUPBiCGStab:  Solving for Ux, Initial residual = 0.0020956398, Final residual = 7.9777466e-09, No Iterations 9
DILUPBiCGStab:  Solving for Uz, Initial residual = 0.01004919, Final residual = 9.0440207e-09, No Iterations 10
GAMG:  Solving for p, Initial residual = 0.049574326, Final residual = 0.0046006127, No Iterations 3
time step continuity errors : sum local = 0.01438072, global = 0.00061595554, cumulative = -0.039573881
DILUPBiCGStab:  Solving for nuTilda, Initial residual = 0.0021295812, Final residual = 4.5840846e-09, No Iterations 5
ExecutionTime = 1.17 s  ClockTime = 1 s

Time = 72

DILUPBiCGStab:  Solving for Ux, Initial residual = 0.0020614086, Final residual = 7.424103e-09, No Iterations 9
DILUPBiCGStab:  Solving for Uz, Initial residual = 0.0097282488, Final residual = 7.8618524e-09, No Iterations 10
GAMG:  Solving for p, Initial residual = 0.048293621, Final residual = 0.0047253765, No Iterations 3
time step continuity errors : sum local = 0.014783109, global = 0.00066565068, cumulative = -0.03890823
DILUPBiCGStab:  Solving for nuTilda, Initial residual = 0.0021156987, Final residual = 4.6599152e-09, No Iterations 5
ExecutionTime = 1.18 s  ClockTime = 1 s

Time = 73

DILUPBiCGStab:  Solving for Ux, Initial residual = 0.0020250087, Final residual = 8.0146853e-09, No Iterations 9
DILUPBiCGStab:  Solving for Uz, Initial residual = 0.0099277373, Final residual = 5.0520256e-09, No Iterations 11
GAMG:  Solving for p, Initial residual = 0.046321926, Final residual = 0.004410488, No Iterations 3
time step continuity errors : sum local = 0.013903808, global = 0.00071682001, cumulative = -0.03819141
DILUPBiCGStab:  Solving for nuTilda, Initial residual = 0.002104559, Final residual = 4.5383678e-09, No Iterations 5
ExecutionTime = 1.19 s  ClockTime = 1 s

Time = 74

DILUPBiCGStab:  Solving for Ux, Initial residual = 0.0020503372, Final residual = 9.7387197e-09, No Iterations 9
DILUPBiCGStab:  Solving for Uz, Initial residual = 0.0094289199, Final residual = 5.2460788e-09, No Iterations 11
GAMG:  Solving for p, Initial residual = 0.045224153, Final residual = 0.003659613, No Iterations 5
time step continuity errors : sum local = 0.011502979, global = 0.0015009266, cumulative = -0.036690484
DILUPBiCGStab:  Solving for nuTilda, Initial residual = 0.0020980733, Final residual = 4.4032166e-09, No Iterations 5
ExecutionTime = 1.2 s  ClockTime = 1 s

Time = 75

DILUPBiCGStab:  Solving for Ux, Initial residual = 0.0021596029, Final residual = 3.6411076e-09, No Iterations 10
DILUPBiCGStab:  Solving for Uz, Initial residual = 0.010224474, Final residual = 4.6154822e-09, No Iterations 11
GAMG:  Solving for p, Initial residual = 0.038727683, Final residual = 0.0031762538, No Iterations 4
time step continuity errors : sum local = 0.011575907, global = 7.4683552e-06, cumulative = -0.036683015
DILUPBiCGStab:  Solving for nuTilda, Initial residual = 0.0020946299, Final residual = 4.2587703e-09, No Iterations 5
ExecutionTime = 1.22 s  ClockTime = 1 s

Time = 76

DILUPBiCGStab:  Solving for Ux, Initial residual = 0.0021179672, Final residual = 3.1337304e-09, No Iterations 10
DILUPBiCGStab:  Solving for Uz, Initial residual = 0.010023014, Final residual = 9.3296707e-09, No Iterations 10
GAMG:  Solving for p, Initial residual = 0.039292094, Final residual = 0.0033185116, No Iterations 4
time step continuity errors : sum local = 0.012013322, global = 0.00041788433, cumulative = -0.036265131
DILUPBiCGStab:  Solving for nuTilda, Initial residual = 0.0020922294, Final residual = 4.335196e-09, No Iterations 5
ExecutionTime = 1.23 s  ClockTime = 1 s

Time = 77

DILUPBiCGStab:  Solving for Ux, Initial residual = 0.0022056273, Final residual = 3.2558128e-09, No Iterations 10
DILUPBiCGStab:  Solving for Uz, Initial residual = 0.010790001, Final residual = 8.6847171e-09, No Iterations 10
GAMG:  Solving for p, Initial residual = 0.040977028, Final residual = 0.003270833, No Iterations 4
time step continuity errors : sum local = 0.011810157, global = 0.00017518115, cumulative = -0.03608995
DILUPBiCGStab:  Solving for nuTilda, Initial residual = 0.0020937345, Final residual = 4.3739283e-09, No Iterations 5
ExecutionTime = 1.24 s  ClockTime = 1 s

Time = 78

DILUPBiCGStab:  Solving for Ux, Initial residual = 0.0021617763, Final residual = 3.4624578e-09, No Iterations 10
DILUPBiCGStab:  Solving for Uz, Initial residual = 0.010810135, Final residual = 8.1638823e-09, No Iterations 10
GAMG:  Solving for p, Initial residual = 0.041453284, Final residual = 0.0029931772, No Iterations 5
time step continuity errors : sum local = 0.010990515, global = -0.001011149, cumulative = -0.037101099
DILUPBiCGStab:  Solving for nuTilda, Initial residual = 0.0020973007, Final residual = 4.4102797e-09, No Iterations 5
ExecutionTime = 1.26 s  ClockTime = 1 s

Time = 79

DILUPBiCGStab:  Solving for Ux, Initial residual = 0.0021035099, Final residual = 3.8225559e-09, No Iterations 10
DILUPBiCGStab:  Solving for Uz, Initial residual = 0.011407755, Final residual = 8.2204375e-09, No Iterations 10
GAMG:  Solving for p, Initial residual = 0.048736508, Final residual = 0.0033841201, No Iterations 4
time step continuity errors : sum local = 0.010860719, global = 6.5450449e-05, cumulative = -0.037035648
DILUPBiCGStab:  Solving for nuTilda, Initial residual = 0.0021042445, Final residual = 4.2919674e-09, No Iterations 5
ExecutionTime = 1.28 s  ClockTime = 1 s

Time = 80

DILUPBiCGStab:  Solving for Ux, Initial residual = 0.0022414163, Final residual = 4.8942396e-09, No Iterations 10
DILUPBiCGStab:  Solving for Uz, Initial residual = 0.011884215, Final residual = 8.6873571e-09, No Iterations 10
GAMG:  Solving for p, Initial residual = 0.047391973, Final residual = 0.0035932322, No Iterations 4
time step continuity errors : sum local = 0.012122213, global = -3.8327521e-05, cumulative = -0.037073976
DILUPBiCGStab:  Solving for nuTilda, Initial residual = 0.0021107674, Final residual = 4.2545783e-09, No Iterations 5
ExecutionTime = 1.29 s  ClockTime = 1 s

Time = 81

DILUPBiCGStab:  Solving for Ux, Initial residual = 0.0022175646, Final residual = 8.1555512e-09, No Iterations 10
DILUPBiCGStab:  Solving for Uz, Initial residual = 0.012111243, Final residual = 8.1992784e-09, No Iterations 10
GAMG:  Solving for p, Initial residual = 0.051166824, Final residual = 0.0034696966, No Iterations 4
time step continuity errors : sum local = 0.011130642, global = -0.00039794862, cumulative = -0.037471925
DILUPBiCGStab:  Solving for nuTilda, Initial residual = 0.0021223495, Final residual = 3.5166048e-09, No Iterations 5
ExecutionTime = 1.3 s  ClockTime = 1 s

Time = 82

DILUPBiCGStab:  Solving for Ux, Initial residual = 0.0021958529, Final residual = 2.0929781e-09, No Iterations 11
DILUPBiCGStab:  Solving for Uz, Initial residual = 0.012707959, Final residual = 7.7955898e-09, No Iterations 10
GAMG:  Solving for p, Initial residual = 0.049983252, Final residual = 0.0038109032, No Iterations 4
time step continuity errors : sum local = 0.01277401, global = 0.00039298989, cumulative = -0.037078935
DILUPBiCGStab:  Solving for nuTilda, Initial residual = 0.0021323551, Final residual = 4.7199257e-09, No Iterations 5
ExecutionTime = 1.32 s  ClockTime = 1 s

Time = 83

DILUPBiCGStab:  Solving for Ux, Initial residual = 0.0023403577, Final residual = 7.5307369e-09, No Iterations 10
DILUPBiCGStab:  Solving for Uz, Initial residual = 0.0126857, Final residual = 8.0109663e-09, No Iterations 10
GAMG:  Solving for p, Initial residual = 0.053263215, Final residual = 0.0051300187, No Iterations 3
time step continuity errors : sum local = 0.016648223, global = 9.8924738e-05, cumulative = -0.03698001
DILUPBiCGStab:  Solving for nuTilda, Initial residual = 0.0021453239, Final residual = 4.0274971e-09, No Iterations 5
ExecutionTime = 1.33 s  ClockTime = 1 s

Time = 84

DILUPBiCGStab:  Solving for Ux, Initial residual = 0.0021290797, Final residual = 7.8403777e-09, No Iterations 10
DILUPBiCGStab:  Solving for Uz, Initial residual = 0.01275978, Final residual = 8.4327882e-09, No Iterations 10
GAMG:  Solving for p, Initial residual = 0.054533105, Final residual = 0.0048842059, No Iterations 3
time step continuity errors : sum local = 0.016007008, global = 2.3105398e-05, cumulative = -0.036956905
DILUPBiCGStab:  Solving for nuTilda, Initial residual = 0.0021558227, Final residual = 3.4155933e-09, No Iterations 5
ExecutionTime = 1.34 s  ClockTime = 1 s

Time = 85

DILUPBiCGStab:  Solving for Ux, Initial residual = 0.0021486003, Final residual = 3.2694209e-09, No Iterations 11
DILUPBiCGStab:  Solving for Uz, Initial residual = 0.011938908, Final residual = 5.8263972e-09, No Iterations 11
GAMG:  Solving for p, Initial residual = 0.054969841, Final residual = 0.0046383074, No Iterations 3
time step continuity errors : sum local = 0.015249077, global = -0.00023189983, cumulative = -0.037188804
DILUPBiCGStab:  Solving for nuTilda, Initial residual = 0.0021708186, Final residual = 5.350631e-09, No Iterations 5
ExecutionTime = 1.35 s  ClockTime = 1 s

Time = 86

DILUPBiCGStab:  Solving for Ux, Initial residual = 0.0019920173, Final residual = 5.027287e-09, No Iterations 11
DILUPBiCGStab:  Solving for Uz, Initial residual = 0.011805657, Final residual = 6.8844961e-09, No Iterations 11
GAMG:  Solving for p, Initial residual = 0.054053784, Final residual = 0.0044660197, No Iterations 3
time step continuity errors : sum local = 0.014658501, global = 0.00015899396, cumulative = -0.03702981
DILUPBiCGStab:  Solving for nuTilda, Initial residual = 0.0021851974, Final residual = 3.220641e-10, No Iterations 6
ExecutionTime = 1.36 s  ClockTime = 1 s

Time = 87

DILUPBiCGStab:  Solving for Ux, Initial residual = 0.0020623333, Final residual = 8.6053003e-09, No Iterations 10
DILUPBiCGStab:  Solving for Uz, Initial residual = 0.011460697, Final residual = 7.6383339e-09, No Iterations 11
GAMG:  Solving for p, Initial residual = 0.051299188, Final residual = 0.0043746664, No Iterations 3
time step continuity errors : sum local = 0.014480271, global = -0.00021946184, cumulative = -0.037249272
DILUPBiCGStab:  Solving for nuTilda, Initial residual = 0.002199935, Final residual = 3.2016237e-10, No Iterations 6
ExecutionTime = 1.37 s  ClockTime = 1 s

Time = 88

DILUPBiCGStab:  Solving for Ux, Initial residual = 0.0019487645, Final residual = 7.3432811e-09, No Iterations 10
DILUPBiCGStab:  Solving for Uz, Initial residual = 0.011259498, Final residual = 5.8386692e-09, No Iterations 11
GAMG:  Solving for p, Initial residual = 0.049647273, Final residual = 0.00410876, No Iterations 3
time step continuity errors : sum local = 0.013540572, global = 8.9894675e-05, cumulative = -0.037159378
DILUPBiCGStab:  Solving for nuTilda, Initial residual = 0.0022150142, Final residual = 3.2380444e-10, No Iterations 6
ExecutionTime = 1.38 s  ClockTime = 1 s

Time = 89

DILUPBiCGStab:  Solving for Ux, Initial residual = 0.001943814, Final residual = 5.3709122e-09, No Iterations 10
DILUPBiCGStab:  Solving for Uz, Initial residual = 0.01095193, Final residual = 8.880519e-09, No Iterations 11
GAMG:  Solving for p, Initial residual = 0.047601491, Final residual = 0.0040667969, No Iterations 3
time step continuity errors : sum local = 0.013494432, global = -0.000107361, cumulative = -0.037266739
DILUPBiCGStab:  Solving for nuTilda, Initial residual = 0.0022291521, Final residual = 9.6641597e-09, No Iterations 5
ExecutionTime = 1.39 s  ClockTime = 1 s

Time = 90

DILUPBiCGStab:  Solving for Ux, Initial residual = 0.0018960055, Final residual = 7.033941e-09, No Iterations 10
DILUPBiCGStab:  Solving for Uz, Initial residual = 0.010664379, Final residual = 9.1902627e-09, No Iterations 10
GAMG:  Solving for p, Initial residual = 0.046632902, Final residual = 0.0039466309, No Iterations 3
time step continuity errors : sum local = 0.013055462, global = -0.00010641323, cumulative = -0.037373152
DILUPBiCGStab:  Solving for nuTilda, Initial residual = 0.0022449565, Final residual = 5.648902e-09, No Iterations 5
ExecutionTime = 1.4 s  ClockTime = 1 s

Time = 91

DILUPBiCGStab:  Solving for Ux, Initial residual = 0.0018361358, Final residual = 7.9658965e-09, No Iterations 10
DILUPBiCGStab:  Solving for Uz, Initial residual = 0.010500481, Final residual = 8.8205649e-09, No Iterations 10
GAMG:  Solving for p, Initial residual = 0.046129191, Final residual = 0.003943136, No Iterations 3
time step continuity errors : sum local = 0.013086172, global = -6.0854065e-05, cumulative = -0.037434006
DILUPBiCGStab:  Solving for nuTilda, Initial residual = 0.002258817, Final residual = 2.6628954e-09, No Iterations 5
ExecutionTime = 1.41 s  ClockTime = 1 s

Time = 92

DILUPBiCGStab:  Solving for Ux, Initial residual = 0.0018592414, Final residual = 6.611203e-09, No Iterations 10
DILUPBiCGStab:  Solving for Uz, Initial residual = 0.010227148, Final residual = 5.3500872e-09, No Iterations 11
GAMG:  Solving for p, Initial residual = 0.045687268, Final residual = 0.0039144445, No Iterations 3
time step continuity errors : sum local = 0.013006464, global = -0.00029166229, cumulative = -0.037725668
DILUPBiCGStab:  Solving for nuTilda, Initial residual = 0.0022740312, Final residual = 8.7040182e-09, No Iterations 5
ExecutionTime = 1.42 s  ClockTime = 1 s

Time = 93

DILUPBiCGStab:  Solving for Ux, Initial residual = 0.0017785251, Final residual = 9.6041625e-09, No Iterations 10
DILUPBiCGStab:  Solving for Uz, Initial residual = 0.010211315, Final residual = 5.4308787e-09, No Iterations 11
GAMG:  Solving for p, Initial residual = 0.045058675, Final residual = 0.0039102493, No Iterations 3
time step continuity errors : sum local = 0.012970574, global = -7.3179143e-05, cumulative = -0.037798847
DILUPBiCGStab:  Solving for nuTilda, Initial residual = 0.0022885291, Final residual = 8.1000988e-09, No Iterations 5
ExecutionTime = 1.43 s  ClockTime = 1 s

Time = 94

DILUPBiCGStab:  Solving for Ux, Initial residual = 0.0018148569, Final residual = 7.4599287e-09, No Iterations 10
DILUPBiCGStab:  Solving for Uz, Initial residual = 0.010047815, Final residual = 5.5486348e-09, No Iterations 11
GAMG:  Solving for p, Initial residual = 0.04357218, Final residual = 0.0038550658, No Iterations 3
time step continuity errors : sum local = 0.012839582, global = -0.0004224603, cumulative = -0.038221308
DILUPBiCGStab:  Solving for nuTilda, Initial residual = 0.0023023074, Final residual = 7.1476619e-09, No Iterations 5
ExecutionTime = 1.44 s  ClockTime = 1 s

Time = 95

DILUPBiCGStab:  Solving for Ux, Initial residual = 0.0017416954, Final residual = 6.3452536e-09, No Iterations 10
DILUPBiCGStab:  Solving for Uz, Initial residual = 0.0099733619, Final residual = 5.9707408e-09, No Iterations 11
GAMG:  Solving for p, Initial residual = 0.042361153, Final residual = 0.0039191628, No Iterations 3
time step continuity errors : sum local = 0.01299685, global = -0.00014312498, cumulative = -0.038364433
DILUPBiCGStab:  Solving for nuTilda, Initial residual = 0.0023167329, Final residual = 3.0927912e-09, No Iterations 5
ExecutionTime = 1.45 s  ClockTime = 1 s

Time = 96

DILUPBiCGStab:  Solving for Ux, Initial residual = 0.0017309119, Final residual = 6.2287967e-09, No Iterations 10
DILUPBiCGStab:  Solving for Uz, Initial residual = 0.0097955578, Final residual = 6.5278281e-09, No Iterations 11
GAMG:  Solving for p, Initial residual = 0.041168381, Final residual = 0.0038603388, No Iterations 3
time step continuity errors : sum local = 0.012853401, global = -0.00033654952, cumulative = -0.038700982
DILUPBiCGStab:  Solving for nuTilda, Initial residual = 0.0023275769, Final residual = 4.8892199e-09, No Iterations 5
ExecutionTime = 1.46 s  ClockTime = 1 s

Time = 97

DILUPBiCGStab:  Solving for Ux, Initial residual = 0.0016959837, Final residual = 1.1772695e-09, No Iterations 11
DILUPBiCGStab:  Solving for Uz, Initial residual = 0.0095850925, Final residual = 6.4572868e-09, No Iterations 11
GAMG:  Solving for p, Initial residual = 0.040617956, Final residual = 0.0038855565, No Iterations 3
time step continuity errors : sum local = 0.01290801, global = -0.00025978761, cumulative = -0.03896077
DILUPBiCGStab:  Solving for nuTilda, Initial residual = 0.0023387618, Final residual = 4.2506405e-09, No Iterations 5
ExecutionTime = 1.48 s  ClockTime = 1 s

Time = 98

DILUPBiCGStab:  Solving for Ux, Initial residual = 0.0016393697, Final residual = 8.8251624e-09, No Iterations 9
DILUPBiCGStab:  Solving for Uz, Initial residual = 0.0094429992, Final residual = 6.5976577e-09, No Iterations 11
GAMG:  Solving for p, Initial residual = 0.040389759, Final residual = 0.0038057564, No Iterations 3
time step continuity errors : sum local = 0.01267847, global = -0.00018174642, cumulative = -0.039142516
DILUPBiCGStab:  Solving for nuTilda, Initial residual = 0.0023452802, Final residual = 2.5776069e-09, No Iterations 5
ExecutionTime = 1.49 s  ClockTime = 1 s

Time = 99

DILUPBiCGStab:  Solving for Ux, Initial residual = 0.0016398027, Final residual = 5.9418862e-09, No Iterations 9
DILUPBiCGStab:  Solving for Uz, Initial residual = 0.0091476237, Final residual = 6.5010428e-09, No Iterations 11
GAMG:  Solving for p, Initial residual = 0.039939938, Final residual = 0.0037637872, No Iterations 3
time step continuity errors : sum local = 0.012561201, global = -0.00035343151, cumulative = -0.039495948
DILUPBiCGStab:  Solving for nuTilda, Initial residual = 0.002351339, Final residual = 2.023867e-09, No Iterations 5
ExecutionTime = 1.5 s  ClockTime = 1 s

Time = 100

DILUPBiCGStab:  Solving for Ux, Initial residual = 0.0015673389, Final residual = 6.2513383e-09, No Iterations 9
DILUPBiCGStab:  Solving for Uz, Initial residual = 0.0090680111, Final residual = 7.1605899e-09, No Iterations 11
GAMG:  Solving for p, Initial residual = 0.039180912, Final residual = 0.0036837377, No Iterations 3
time step continuity errors : sum local = 0.01229939, global = -0.00010931333, cumulative = -0.039605261
DILUPBiCGStab:  Solving for nuTilda, Initial residual = 0.0023539158, Final residual = 1.7997524e-09, No Iterations 5
ExecutionTime = 1.51 s  ClockTime = 1 s

Time = 101

DILUPBiCGStab:  Solving for Ux, Initial residual = 0.0015668812, Final residual = 8.6321692e-09, No Iterations 9
DILUPBiCGStab:  Solving for Uz, Initial residual = 0.0088779248, Final residual = 6.0470582e-09, No Iterations 11
GAMG:  Solving for p, Initial residual = 0.037635766, Final residual = 0.0035796105, No Iterations 3
time step continuity errors : sum local = 0.012012618, global = -0.00036406315, cumulative = -0.039969324
DILUPBiCGStab:  Solving for nuTilda, Initial residual = 0.0023540959, Final residual = 9.772613e-09, No Iterations 5
ExecutionTime = 1.52 s  ClockTime = 1 s

Time = 102

DILUPBiCGStab:  Solving for Ux, Initial residual = 0.0015075327, Final residual = 7.6635916e-09, No Iterations 9
DILUPBiCGStab:  Solving for Uz, Initial residual = 0.0086752015, Final residual = 8.3740428e-09, No Iterations 11
GAMG:  Solving for p, Initial residual = 0.036233575, Final residual = 0.0035633803, No Iterations 3
time step continuity errors : sum local = 0.011935922, global = -0.00011600531, cumulative = -0.040085329
DILUPBiCGStab:  Solving for nuTilda, Initial residual = 0.0023528995, Final residual = 9.6240481e-09, No Iterations 5
ExecutionTime = 1.54 s  ClockTime = 1 s

Time = 103

DILUPBiCGStab:  Solving for Ux, Initial residual = 0.0014653246, Final residual = 6.6976808e-09, No Iterations 9
DILUPBiCGStab:  Solving for Uz, Initial residual = 0.0085314757, Final residual = 9.6595984e-09, No Iterations 10
GAMG:  Solving for p, Initial residual = 0.03484729, Final residual = 0.0034553322, No Iterations 3
time step continuity errors : sum local = 0.011633262, global = -0.00023598477, cumulative = -0.040321314
DILUPBiCGStab:  Solving for nuTilda, Initial residual = 0.002348658, Final residual = 3.7208204e-09, No Iterations 5
ExecutionTime = 1.55 s  ClockTime = 1 s

Time = 104

DILUPBiCGStab:  Solving for Ux, Initial residual = 0.0014450631, Final residual = 9.5392044e-09, No Iterations 9
DILUPBiCGStab:  Solving for Uz, Initial residual = 0.0082653408, Final residual = 6.6317751e-09, No Iterations 11
GAMG:  Solving for p, Initial residual = 0.034024191, Final residual = 0.0026958414, No Iterations 4
time step continuity errors : sum local = 0.0090676214, global = -0.00025925223, cumulative = -0.040580566
DILUPBiCGStab:  Solving for nuTilda, Initial residual = 0.0023456981, Final residual = 7.8251622e-09, No Iterations 5
ExecutionTime = 1.57 s  ClockTime = 1 s

Time = 105

DILUPBiCGStab:  Solving for Ux, Initial residual = 0.0014133377, Final residual = 3.9292354e-09, No Iterations 10
DILUPBiCGStab:  Solving for Uz, Initial residual = 0.0085311053, Final residual = 5.5268148e-09, No Iterations 11
GAMG:  Solving for p, Initial residual = 0.033173609, Final residual = 0.0033132613, No Iterations 3
time step continuity errors : sum local = 0.011245373, global = -0.00011394875, cumulative = -0.040694515
DILUPBiCGStab:  Solving for nuTilda, Initial residual = 0.0023403311, Final residual = 4.7233589e-09, No Iterations 5
ExecutionTime = 1.58 s  ClockTime = 1 s

Time = 106

DILUPBiCGStab:  Solving for Ux, Initial residual = 0.0014392838, Final residual = 7.0576898e-09, No Iterations 9
DILUPBiCGStab:  Solving for Uz, Initial residual = 0.008356178, Final residual = 5.43631e-09, No Iterations 11
GAMG:  Solving for p, Initial residual = 0.033134882, Final residual = 0.0032737351, No Iterations 3
time step continuity errors : sum local = 0.011140667, global = -0.0002935531, cumulative = -0.040988068
DILUPBiCGStab:  Solving for nuTilda, Initial residual = 0.0023352276, Final residual = 3.9392821e-09, No Iterations 5
ExecutionTime = 1.59 s  ClockTime = 1 s

Time = 107

DILUPBiCGStab:  Solving for Ux, Initial residual = 0.0013833099, Final residual = 7.1247602e-09, No Iterations 9
DILUPBiCGStab:  Solving for Uz, Initial residual = 0.0082714016, Final residual = 9.8566584e-09, No Iterations 10
GAMG:  Solving for p, Initial residual = 0.03303396, Final residual = 0.0032754302, No Iterations 3
time step continuity errors : sum local = 0.011117794, global = -8.7746847e-05, cumulative = -0.041075815
DILUPBiCGStab:  Solving for nuTilda, Initial residual = 0.0023287889, Final residual = 3.2597677e-09, No Iterations 5
ExecutionTime = 1.6 s  ClockTime = 1 s

Time = 108

DILUPBiCGStab:  Solving for Ux, Initial residual = 0.0013871864, Final residual = 9.7906715e-09, No Iterations 9
DILUPBiCGStab:  Solving for Uz, Initial residual = 0.0083134959, Final residual = 9.7327204e-09, No Iterations 10
GAMG:  Solving for p, Initial residual = 0.032082691, Final residual = 0.0031611729, No Iterations 3
time step continuity errors : sum local = 0.010756192, global = -0.00029967016, cumulative = -0.041375485
DILUPBiCGStab:  Solving for nuTilda, Initial residual = 0.0023225629, Final residual = 3.5416894e-09, No Iterations 5
ExecutionTime = 1.62 s  ClockTime = 2 s

Time = 109

DILUPBiCGStab:  Solving for Ux, Initial residual = 0.0013983452, Final residual = 8.5619955e-09, No Iterations 9
DILUPBiCGStab:  Solving for Uz, Initial residual = 0.0082798844, Final residual = 7.0035556e-09, No Iterations 11
GAMG:  Solving for p, Initial residual = 0.031259353, Final residual = 0.0025088133, No Iterations 4
time step continuity errors : sum local = 0.0085004984, global = -0.00014794904, cumulative = -0.041523434
DILUPBiCGStab:  Solving for nuTilda, Initial residual = 0.0023190011, Final residual = 3.9094555e-09, No Iterations 5
ExecutionTime = 1.63 s  ClockTime = 2 s

Time = 110

DILUPBiCGStab:  Solving for Ux, Initial residual = 0.0014251218, Final residual = 5.7949196e-09, No Iterations 9
DILUPBiCGStab:  Solving for Uz, Initial residual = 0.008834663, Final residual = 5.5458972e-10, No Iterations 13
GAMG:  Solving for p, Initial residual = 0.030263334, Final residual = 0.0023788622, No Iterations 4
time step continuity errors : sum local = 0.0081547418, global = -0.00023703811, cumulative = -0.041760472
DILUPBiCGStab:  Solving for nuTilda, Initial residual = 0.0023226813, Final residual = 5.6720994e-09, No Iterations 5
ExecutionTime = 1.64 s  ClockTime = 2 s

Time = 111

DILUPBiCGStab:  Solving for Ux, Initial residual = 0.0015395749, Final residual = 7.0363098e-09, No Iterations 9
DILUPBiCGStab:  Solving for Uz, Initial residual = 0.0089820246, Final residual = 6.9605572e-09, No Iterations 11
GAMG:  Solving for p, Initial residual = 0.030737762, Final residual = 0.0030171675, No Iterations 4
time step continuity errors : sum local = 0.010271829, global = 0.00027827491, cumulative = -0.041482198
DILUPBiCGStab:  Solving for nuTilda, Initial residual = 0.0023371033, Final residual = 4.7285762e-09, No Iterations 6
ExecutionTime = 1.66 s  ClockTime = 2 s

Time = 112

DILUPBiCGStab:  Solving for Ux, Initial residual = 0.0015336616, Final residual = 8.9079064e-09, No Iterations 9
DILUPBiCGStab:  Solving for Uz, Initial residual = 0.0095870806, Final residual = 5.9938774e-09, No Iterations 11
GAMG:  Solving for p, Initial residual = 0.03472759, Final residual = 0.0028711402, No Iterations 4
time step continuity errors : sum local = 0.0090377624, global = 3.4912983e-05, cumulative = -0.041447285
DILUPBiCGStab:  Solving for nuTilda, Initial residual = 0.0023547771, Final residual = 3.0006561e-09, No Iterations 5
ExecutionTime = 1.67 s  ClockTime = 2 s

Time = 113

DILUPBiCGStab:  Solving for Ux, Initial residual = 0.0017626145, Final residual = 4.5030751e-09, No Iterations 10
DILUPBiCGStab:  Solving for Uz, Initial residual = 0.0098740378, Final residual = 9.771206e-10, No Iterations 13
GAMG:  Solving for p, Initial residual = 0.035623148, Final residual = 0.0027957545, No Iterations 4
time step continuity errors : sum local = 0.0089129122, global = 5.4317634e-06, cumulative = -0.041441853
DILUPBiCGStab:  Solving for nuTilda, Initial residual = 0.0023768086, Final residual = 7.36799e-09, No Iterations 5
ExecutionTime = 1.69 s  ClockTime = 2 s

Time = 114

DILUPBiCGStab:  Solving for Ux, Initial residual = 0.0016156257, Final residual = 5.301706e-09, No Iterations 10
DILUPBiCGStab:  Solving for Uz, Initial residual = 0.010182613, Final residual = 8.9986387e-09, No Iterations 11
GAMG:  Solving for p, Initial residual = 0.037515578, Final residual = 0.0029809266, No Iterations 4
time step continuity errors : sum local = 0.0092884842, global = 0.00023960722, cumulative = -0.041202246
DILUPBiCGStab:  Solving for nuTilda, Initial residual = 0.0023984552, Final residual = 7.7150791e-09, No Iterations 5
ExecutionTime = 1.7 s  ClockTime = 2 s

Time = 115

DILUPBiCGStab:  Solving for Ux, Initial residual = 0.0017761467, Final residual = 5.9897132e-09, No Iterations 9
DILUPBiCGStab:  Solving for Uz, Initial residual = 0.010927082, Final residual = 3.7274757e-09, No Iterations 12
GAMG:  Solving for p, Initial residual = 0.037136867, Final residual = 0.0028850272, No Iterations 4
time step continuity errors : sum local = 0.0093385935, global = 0.00041033702, cumulative = -0.040791909
DILUPBiCGStab:  Solving for nuTilda, Initial residual = 0.002420337, Final residual = 7.4992715e-09, No Iterations 5
ExecutionTime = 1.72 s  ClockTime = 2 s

Time = 116

DILUPBiCGStab:  Solving for Ux, Initial residual = 0.0017570274, Final residual = 9.6635828e-09, No Iterations 11
DILUPBiCGStab:  Solving for Uz, Initial residual = 0.010974622, Final residual = 5.9169438e-09, No Iterations 11
GAMG:  Solving for p, Initial residual = 0.039732015, Final residual = 0.0032441007, No Iterations 4
time step continuity errors : sum local = 0.010076221, global = -0.00011397206, cumulative = -0.040905881
DILUPBiCGStab:  Solving for nuTilda, Initial residual = 0.002442424, Final residual = 7.5872156e-09, No Iterations 5
ExecutionTime = 1.73 s  ClockTime = 2 s

Time = 117

DILUPBiCGStab:  Solving for Ux, Initial residual = 0.00175061, Final residual = 7.8704574e-09, No Iterations 11
DILUPBiCGStab:  Solving for Uz, Initial residual = 0.011695178, Final residual = 8.1635743e-09, No Iterations 11
GAMG:  Solving for p, Initial residual = 0.038615931, Final residual = 0.00351641, No Iterations 4
time step continuity errors : sum local = 0.011488612, global = 0.00010688499, cumulative = -0.040798996
DILUPBiCGStab:  Solving for nuTilda, Initial residual = 0.002461988, Final residual = 4.1415552e-09, No Iterations 5
ExecutionTime = 1.75 s  ClockTime = 2 s

Time = 118

DILUPBiCGStab:  Solving for Ux, Initial residual = 0.0017993997, Final residual = 7.1281732e-09, No Iterations 10
DILUPBiCGStab:  Solving for Uz, Initial residual = 0.011505047, Final residual = 6.3454465e-09, No Iterations 11
GAMG:  Solving for p, Initial residual = 0.038177549, Final residual = 0.0030916115, No Iterations 4
time step continuity errors : sum local = 0.010694664, global = -0.00024488552, cumulative = -0.041043881
DILUPBiCGStab:  Solving for nuTilda, Initial residual = 0.0024818144, Final residual = 7.1509676e-10, No Iterations 6
ExecutionTime = 1.76 s  ClockTime = 2 s

Time = 119

DILUPBiCGStab:  Solving for Ux, Initial residual = 0.0017484569, Final residual = 5.7013666e-09, No Iterations 10
DILUPBiCGStab:  Solving for Uz, Initial residual = 0.012229062, Final residual = 6.4474577e-09, No Iterations 11
GAMG:  Solving for p, Initial residual = 0.037987873, Final residual = 0.0026677723, No Iterations 4
time step continuity errors : sum local = 0.009485825, global = 0.00030773761, cumulative = -0.040736144
DILUPBiCGStab:  Solving for nuTilda, Initial residual = 0.0024955058, Final residual = 8.1562654e-10, No Iterations 6
ExecutionTime = 1.77 s  ClockTime = 2 s

Time = 120

DILUPBiCGStab:  Solving for Ux, Initial residual = 0.0018372612, Final residual = 6.0963094e-09, No Iterations 10
DILUPBiCGStab:  Solving for Uz, Initial residual = 0.011958585, Final residual = 7.1028409e-09, No Iterations 11
GAMG:  Solving for p, Initial residual = 0.039138636, Final residual = 0.0039074556, No Iterations 3
time step continuity errors : sum local = 0.013972697, global = -0.00029593797, cumulative = -0.041032082
DILUPBiCGStab:  Solving for nuTilda, Initial residual = 0.0025135049, Final residual = 9.8234632e-10, No Iterations 6
ExecutionTime = 1.78 s  ClockTime = 2 s

Time = 121

DILUPBiCGStab:  Solving for Ux, Initial residual = 0.0017105476, Final residual = 9.9419035e-09, No Iterations 9
DILUPBiCGStab:  Solving for Uz, Initial residual = 0.011941072, Final residual = 8.3381015e-09, No Iterations 11
GAMG:  Solving for p, Initial residual = 0.040646956, Final residual = 0.0037272255, No Iterations 3
time step continuity errors : sum local = 0.013266335, global = 0.00013502794, cumulative = -0.040897054
DILUPBiCGStab:  Solving for nuTilda, Initial residual = 0.0025234851, Final residual = 1.4411904e-09, No Iterations 6
ExecutionTime = 1.79 s  ClockTime = 2 s

Time = 122

DILUPBiCGStab:  Solving for Ux, Initial residual = 0.0016898208, Final residual = 9.1873723e-09, No Iterations 9
DILUPBiCGStab:  Solving for Uz, Initial residual = 0.011475078, Final residual = 7.6422685e-09, No Iterations 12
GAMG:  Solving for p, Initial residual = 0.039987575, Final residual = 0.0037005898, No Iterations 3
time step continuity errors : sum local = 0.013285861, global = -0.00049212863, cumulative = -0.041389182
DILUPBiCGStab:  Solving for nuTilda, Initial residual = 0.0025341289, Final residual = 3.7180343e-09, No Iterations 6
ExecutionTime = 1.81 s  ClockTime = 2 s

Time = 123

DILUPBiCGStab:  Solving for Ux, Initial residual = 0.0016468425, Final residual = 9.8305527e-09, No Iterations 9
DILUPBiCGStab:  Solving for Uz, Initial residual = 0.011052855, Final residual = 4.9713956e-09, No Iterations 12
GAMG:  Solving for p, Initial residual = 0.038464242, Final residual = 0.0035872673, No Iterations 3
time step continuity errors : sum local = 0.01282088, global = -0.0002795196, cumulative = -0.041668702
DILUPBiCGStab:  Solving for nuTilda, Initial residual = 0.0025387167, Final residual = 5.0021561e-09, No Iterations 6
ExecutionTime = 1.82 s  ClockTime = 2 s

Time = 124

DILUPBiCGStab:  Solving for Ux, Initial residual = 0.0016087496, Final residual = 4.2568947e-09, No Iterations 10
DILUPBiCGStab:  Solving for Uz, Initial residual = 0.010657897, Final residual = 3.6781486e-09, No Iterations 12
GAMG:  Solving for p, Initial residual = 0.036038598, Final residual = 0.0033650429, No Iterations 3
time step continuity errors : sum local = 0.012130706, global = -0.00065384204, cumulative = -0.042322544
DILUPBiCGStab:  Solving for nuTilda, Initial residual = 0.0025435403, Final residual = 5.5632251e-09, No Iterations 6
ExecutionTime = 1.83 s  ClockTime = 2 s

Time = 125

DILUPBiCGStab:  Solving for Ux, Initial residual = 0.0015862154, Final residual = 5.2380533e-09, No Iterations 10
DILUPBiCGStab:  Solving for Uz, Initial residual = 0.010113223, Final residual = 7.4094974e-09, No Iterations 11
GAMG:  Solving for p, Initial residual = 0.034305529, Final residual = 0.00326963, No Iterations 4
time step continuity errors : sum local = 0.011756088, global = -0.0016222949, cumulative = -0.043944839
DILUPBiCGStab:  Solving for nuTilda, Initial residual = 0.0025431138, Final residual = 7.6032659e-09, No Iterations 6
ExecutionTime = 1.85 s  ClockTime = 2 s

Time = 126

DILUPBiCGStab:  Solving for Ux, Initial residual = 0.0018229093, Final residual = 9.222649e-09, No Iterations 10
DILUPBiCGStab:  Solving for Uz, Initial residual = 0.010857605, Final residual = 7.1787188e-09, No Iterations 11
GAMG:  Solving for p, Initial residual = 0.042132117, Final residual = 0.004021272, No Iterations 4
time step continuity errors : sum local = 0.011598838, global = 0.00075191968, cumulative = -0.043192919
DILUPBiCGStab:  Solving for nuTilda, Initial residual = 0.0025443226, Final residual = 7.2505135e-09, No Iterations 5
ExecutionTime = 1.86 s  ClockTime = 2 s

Time = 127

DILUPBiCGStab:  Solving for Ux, Initial residual = 0.0020258454, Final residual = 6.1427564e-09, No Iterations 10
DILUPBiCGStab:  Solving for Uz, Initial residual = 0.010280545, Final residual = 7.3999016e-09, No Iterations 11
GAMG:  Solving for p, Initial residual = 0.042454896, Final residual = 0.0036227973, No Iterations 4
time step continuity errors : sum local = 0.010426414, global = -0.0007221049, cumulative = -0.043915024
DILUPBiCGStab:  Solving for nuTilda, Initial residual = 0.0025418992, Final residual = 6.1775625e-09, No Iterations 5
ExecutionTime = 1.88 s  ClockTime = 2 s

Time = 128

DILUPBiCGStab:  Solving for Ux, Initial residual = 0.0016788496, Final residual = 7.9183763e-09, No Iterations 11
DILUPBiCGStab:  Solving for Uz, Initial residual = 0.010884281, Final residual = 6.0415163e-09, No Iterations 12
GAMG:  Solving for p, Initial residual = 0.040617337, Final residual = 0.0031822227, No Iterations 5
time step continuity errors : sum local = 0.0097056647, global = 0.0013079822, cumulative = -0.042607042
DILUPBiCGStab:  Solving for nuTilda, Initial residual = 0.0025342026, Final residual = 5.7681762e-09, No Iterations 5
ExecutionTime = 1.9 s  ClockTime = 2 s

Time = 129

DILUPBiCGStab:  Solving for Ux, Initial residual = 0.0017347209, Final residual = 2.8681387e-09, No Iterations 12
DILUPBiCGStab:  Solving for Uz, Initial residual = 0.010956406, Final residual = 5.3262979e-09, No Iterations 11
GAMG:  Solving for p, Initial residual = 0.035247477, Final residual = 0.0025474186, No Iterations 4
time step continuity errors : sum local = 0.0090970885, global = -6.1927743e-05, cumulative = -0.04266897
DILUPBiCGStab:  Solving for nuTilda, Initial residual = 0.0025181312, Final residual = 5.6193978e-09, No Iterations 5
ExecutionTime = 1.91 s  ClockTime = 2 s

[...]
DILUPBiCGStab:  Solving for nuTilda, Initial residual = 1.0428384e-05, Final residual = 4.6486622e-09, No Iterations 3
ExecutionTime = 24.25 s  ClockTime = 24 s

Time = 2621

DILUPBiCGStab:  Solving for Ux, Initial residual = 4.2941669e-06, Final residual = 7.657434e-09, No Iterations 3
DILUPBiCGStab:  Solving for Uz, Initial residual = 8.0815833e-06, Final residual = 1.8952725e-09, No Iterations 5
GAMG:  Solving for p, Initial residual = 9.1263631e-06, Final residual = 8.0182685e-07, No Iterations 3
time step continuity errors : sum local = 2.7641375e-06, global = -7.7267436e-09, cumulative = -0.040195546
DILUPBiCGStab:  Solving for nuTilda, Initial residual = 1.0410975e-05, Final residual = 4.6407454e-09, No Iterations 3
ExecutionTime = 24.26 s  ClockTime = 24 s

Time = 2622

DILUPBiCGStab:  Solving for Ux, Initial residual = 4.293191e-06, Final residual = 7.6126253e-09, No Iterations 3
DILUPBiCGStab:  Solving for Uz, Initial residual = 8.0697218e-06, Final residual = 1.9297425e-09, No Iterations 5
GAMG:  Solving for p, Initial residual = 9.0901118e-06, Final residual = 7.0622144e-07, No Iterations 3
time step continuity errors : sum local = 2.4345903e-06, global = 2.8483554e-08, cumulative = -0.040195517
DILUPBiCGStab:  Solving for nuTilda, Initial residual = 1.0393567e-05, Final residual = 4.6324844e-09, No Iterations 3
ExecutionTime = 24.27 s  ClockTime = 24 s

Time = 2623

DILUPBiCGStab:  Solving for Ux, Initial residual = 4.2807743e-06, Final residual = 7.6146362e-09, No Iterations 3
DILUPBiCGStab:  Solving for Uz, Initial residual = 8.024396e-06, Final residual = 1.8851887e-09, No Iterations 5
GAMG:  Solving for p, Initial residual = 9.000739e-06, Final residual = 7.684932e-07, No Iterations 3
time step continuity errors : sum local = 2.6492615e-06, global = -5.5486603e-09, cumulative = -0.040195523
DILUPBiCGStab:  Solving for nuTilda, Initial residual = 1.0376233e-05, Final residual = 4.6245991e-09, No Iterations 3
ExecutionTime = 24.28 s  ClockTime = 24 s

Time = 2624

DILUPBiCGStab:  Solving for Ux, Initial residual = 4.2786839e-06, Final residual = 7.5737574e-09, No Iterations 3
DILUPBiCGStab:  Solving for Uz, Initial residual = 8.0258634e-06, Final residual = 1.9144728e-09, No Iterations 5
GAMG:  Solving for p, Initial residual = 9.0248948e-06, Final residual = 6.9907562e-07, No Iterations 3
time step continuity errors : sum local = 2.409983e-06, global = 2.2092953e-08, cumulative = -0.040195501
DILUPBiCGStab:  Solving for nuTilda, Initial residual = 1.0358896e-05, Final residual = 4.6164047e-09, No Iterations 3
ExecutionTime = 24.29 s  ClockTime = 24 s

Time = 2625

DILUPBiCGStab:  Solving for Ux, Initial residual = 4.2667415e-06, Final residual = 7.5769603e-09, No Iterations 3
DILUPBiCGStab:  Solving for Uz, Initial residual = 7.997369e-06, Final residual = 1.880229e-09, No Iterations 5
GAMG:  Solving for p, Initial residual = 9.0254704e-06, Final residual = 6.8792309e-07, No Iterations 3
time step continuity errors : sum local = 2.3715372e-06, global = 2.9978557e-08, cumulative = -0.040195471
DILUPBiCGStab:  Solving for nuTilda, Initial residual = 1.0341625e-05, Final residual = 4.6084336e-09, No Iterations 3
ExecutionTime = 24.3 s  ClockTime = 24 s

Time = 2626

DILUPBiCGStab:  Solving for Ux, Initial residual = 4.2556931e-06, Final residual = 7.5559616e-09, No Iterations 3
DILUPBiCGStab:  Solving for Uz, Initial residual = 7.9988245e-06, Final residual = 1.908896e-09, No Iterations 5
GAMG:  Solving for p, Initial residual = 9.1193968e-06, Final residual = 7.6807476e-07, No Iterations 3
time step continuity errors : sum local = 2.6478543e-06, global = -1.5176288e-08, cumulative = -0.040195486
DILUPBiCGStab:  Solving for nuTilda, Initial residual = 1.0324332e-05, Final residual = 4.6006141e-09, No Iterations 3
ExecutionTime = 24.31 s  ClockTime = 24 s

Time = 2627

DILUPBiCGStab:  Solving for Ux, Initial residual = 4.254526e-06, Final residual = 7.538106e-09, No Iterations 3
DILUPBiCGStab:  Solving for Uz, Initial residual = 8.0059723e-06, Final residual = 1.8732367e-09, No Iterations 5
GAMG:  Solving for p, Initial residual = 9.3326432e-06, Final residual = 6.980232e-07, No Iterations 3
time step continuity errors : sum local = 2.406386e-06, global = 2.2113692e-08, cumulative = -0.040195464
DILUPBiCGStab:  Solving for nuTilda, Initial residual = 1.0307099e-05, Final residual = 4.5923548e-09, No Iterations 3
ExecutionTime = 24.32 s  ClockTime = 24 s

Time = 2628

DILUPBiCGStab:  Solving for Ux, Initial residual = 4.2442466e-06, Final residual = 7.519879e-09, No Iterations 3
DILUPBiCGStab:  Solving for Uz, Initial residual = 7.9696303e-06, Final residual = 1.9066387e-09, No Iterations 5
GAMG:  Solving for p, Initial residual = 9.5275463e-06, Final residual = 7.6735229e-07, No Iterations 3
time step continuity errors : sum local = 2.6453946e-06, global = -1.8732302e-08, cumulative = -0.040195482
DILUPBiCGStab:  Solving for nuTilda, Initial residual = 1.0289874e-05, Final residual = 4.5845664e-09, No Iterations 3
ExecutionTime = 24.33 s  ClockTime = 24 s

Time = 2629

DILUPBiCGStab:  Solving for Ux, Initial residual = 4.2427686e-06, Final residual = 7.5073552e-09, No Iterations 3
DILUPBiCGStab:  Solving for Uz, Initial residual = 7.991004e-06, Final residual = 1.8717426e-09, No Iterations 5
GAMG:  Solving for p, Initial residual = 9.8655416e-06, Final residual = 7.1528076e-07, No Iterations 3
time step continuity errors : sum local = 2.4659098e-06, global = 1.3180832e-08, cumulative = -0.040195469
DILUPBiCGStab:  Solving for nuTilda, Initial residual = 1.0272689e-05, Final residual = 4.5763415e-09, No Iterations 3
ExecutionTime = 24.34 s  ClockTime = 24 s

Time = 2630

DILUPBiCGStab:  Solving for Ux, Initial residual = 4.2330803e-06, Final residual = 7.4883997e-09, No Iterations 3
DILUPBiCGStab:  Solving for Uz, Initial residual = 7.9586654e-06, Final residual = 1.9089738e-09, No Iterations 5
GAMG:  Solving for p, Initial residual = 1.0176436e-05, Final residual = 7.2244058e-07, No Iterations 3
time step continuity errors : sum local = 2.4905921e-06, global = 3.121516e-08, cumulative = -0.040195438
DILUPBiCGStab:  Solving for nuTilda, Initial residual = 1.0255499e-05, Final residual = 4.568336e-09, No Iterations 3
ExecutionTime = 24.35 s  ClockTime = 24 s

Time = 2631

DILUPBiCGStab:  Solving for Ux, Initial residual = 4.222351e-06, Final residual = 7.4990211e-09, No Iterations 3
DILUPBiCGStab:  Solving for Uz, Initial residual = 7.987876e-06, Final residual = 1.8805034e-09, No Iterations 5
GAMG:  Solving for p, Initial residual = 1.0576887e-05, Final residual = 7.3013621e-07, No Iterations 3
time step continuity errors : sum local = 2.5171296e-06, global = 4.4899882e-08, cumulative = -0.040195393
DILUPBiCGStab:  Solving for nuTilda, Initial residual = 1.0238348e-05, Final residual = 4.5603833e-09, No Iterations 3
ExecutionTime = 24.36 s  ClockTime = 24 s

Time = 2632

DILUPBiCGStab:  Solving for Ux, Initial residual = 4.2129994e-06, Final residual = 7.4770901e-09, No Iterations 3
DILUPBiCGStab:  Solving for Uz, Initial residual = 7.9807457e-06, Final residual = 1.914962e-09, No Iterations 5
GAMG:  Solving for p, Initial residual = 1.0983783e-05, Final residual = 8.5013612e-07, No Iterations 3
time step continuity errors : sum local = 2.9308207e-06, global = -6.7253529e-09, cumulative = -0.0401954
DILUPBiCGStab:  Solving for nuTilda, Initial residual = 1.022118e-05, Final residual = 4.5525812e-09, No Iterations 3
ExecutionTime = 24.37 s  ClockTime = 24 s

Time = 2633

DILUPBiCGStab:  Solving for Ux, Initial residual = 4.2167397e-06, Final residual = 7.4675572e-09, No Iterations 3
DILUPBiCGStab:  Solving for Uz, Initial residual = 8.0054082e-06, Final residual = 1.8849402e-09, No Iterations 5
GAMG:  Solving for p, Initial residual = 1.1520718e-05, Final residual = 1.1203324e-06, No Iterations 2
time step continuity errors : sum local = 3.8623821e-06, global = 5.5274476e-09, cumulative = -0.040195394
DILUPBiCGStab:  Solving for nuTilda, Initial residual = 1.0204158e-05, Final residual = 4.5445779e-09, No Iterations 3
ExecutionTime = 24.38 s  ClockTime = 24 s

Time = 2634

DILUPBiCGStab:  Solving for Ux, Initial residual = 4.2039644e-06, Final residual = 7.4361295e-09, No Iterations 3
DILUPBiCGStab:  Solving for Uz, Initial residual = 7.962594e-06, Final residual = 1.956701e-09, No Iterations 5
GAMG:  Solving for p, Initial residual = 1.1339201e-05, Final residual = 9.2337447e-07, No Iterations 3
time step continuity errors : sum local = 3.1833614e-06, global = -1.4581778e-08, cumulative = -0.040195409
DILUPBiCGStab:  Solving for nuTilda, Initial residual = 1.018702e-05, Final residual = 4.5364402e-09, No Iterations 3
ExecutionTime = 24.39 s  ClockTime = 24 s

Time = 2635

DILUPBiCGStab:  Solving for Ux, Initial residual = 4.2077249e-06, Final residual = 7.4219799e-09, No Iterations 3
DILUPBiCGStab:  Solving for Uz, Initial residual = 7.9769219e-06, Final residual = 1.8754087e-09, No Iterations 5
GAMG:  Solving for p, Initial residual = 1.1585789e-05, Final residual = 8.1701923e-07, No Iterations 3
time step continuity errors : sum local = 2.8167518e-06, global = 9.7853024e-09, cumulative = -0.040195399
DILUPBiCGStab:  Solving for nuTilda, Initial residual = 1.0170013e-05, Final residual = 4.5283743e-09, No Iterations 3
ExecutionTime = 24.4 s  ClockTime = 24 s

Time = 2636

DILUPBiCGStab:  Solving for Ux, Initial residual = 4.1991216e-06, Final residual = 7.4050252e-09, No Iterations 3
DILUPBiCGStab:  Solving for Uz, Initial residual = 7.9064222e-06, Final residual = 1.9316537e-09, No Iterations 5
GAMG:  Solving for p, Initial residual = 1.1870524e-05, Final residual = 1.1719422e-06, No Iterations 2
time step continuity errors : sum local = 4.0403716e-06, global = -2.1280047e-09, cumulative = -0.040195401
DILUPBiCGStab:  Solving for nuTilda, Initial residual = 1.0153136e-05, Final residual = 4.5206779e-09, No Iterations 3
ExecutionTime = 24.4 s  ClockTime = 24 s

Time = 2637

DILUPBiCGStab:  Solving for Ux, Initial residual = 4.1852578e-06, Final residual = 7.3996161e-09, No Iterations 3
DILUPBiCGStab:  Solving for Uz, Initial residual = 7.9373542e-06, Final residual = 1.9605638e-09, No Iterations 5
GAMG:  Solving for p, Initial residual = 1.1695989e-05, Final residual = 1.1647533e-06, No Iterations 2
time step continuity errors : sum local = 4.0156169e-06, global = -2.1130675e-08, cumulative = -0.040195422
DILUPBiCGStab:  Solving for nuTilda, Initial residual = 1.0136234e-05, Final residual = 4.5128876e-09, No Iterations 3
ExecutionTime = 24.41 s  ClockTime = 24 s

Time = 2638

DILUPBiCGStab:  Solving for Ux, Initial residual = 4.1692052e-06, Final residual = 7.3770685e-09, No Iterations 3
DILUPBiCGStab:  Solving for Uz, Initial residual = 7.9391659e-06, Final residual = 1.9281619e-09, No Iterations 5
GAMG:  Solving for p, Initial residual = 1.1178663e-05, Final residual = 1.0877177e-06, No Iterations 3
time step continuity errors : sum local = 3.7500212e-06, global = -5.0972037e-08, cumulative = -0.040195473
DILUPBiCGStab:  Solving for nuTilda, Initial residual = 1.0119079e-05, Final residual = 4.5046065e-09, No Iterations 3
ExecutionTime = 24.42 s  ClockTime = 24 s

Time = 2639

DILUPBiCGStab:  Solving for Ux, Initial residual = 4.1774842e-06, Final residual = 7.3728021e-09, No Iterations 3
DILUPBiCGStab:  Solving for Uz, Initial residual = 7.9888914e-06, Final residual = 1.8454801e-09, No Iterations 5
GAMG:  Solving for p, Initial residual = 1.1361317e-05, Final residual = 8.5387436e-07, No Iterations 3
time step continuity errors : sum local = 2.9438741e-06, global = -1.7476039e-08, cumulative = -0.040195491
DILUPBiCGStab:  Solving for nuTilda, Initial residual = 1.0102101e-05, Final residual = 4.496373e-09, No Iterations 3
ExecutionTime = 24.43 s  ClockTime = 24 s

Time = 2640

DILUPBiCGStab:  Solving for Ux, Initial residual = 4.1688462e-06, Final residual = 7.348146e-09, No Iterations 3
DILUPBiCGStab:  Solving for Uz, Initial residual = 7.8171249e-06, Final residual = 1.9142972e-09, No Iterations 5
GAMG:  Solving for p, Initial residual = 1.1406134e-05, Final residual = 7.847594e-07, No Iterations 3
time step continuity errors : sum local = 2.7055757e-06, global = -7.7722735e-09, cumulative = -0.040195499
DILUPBiCGStab:  Solving for nuTilda, Initial residual = 1.0085063e-05, Final residual = 4.488251e-09, No Iterations 3
ExecutionTime = 24.44 s  ClockTime = 24 s

Time = 2641

DILUPBiCGStab:  Solving for Ux, Initial residual = 4.1566087e-06, Final residual = 7.3775348e-09, No Iterations 3
DILUPBiCGStab:  Solving for Uz, Initial residual = 7.8328102e-06, Final residual = 1.8610422e-09, No Iterations 5
GAMG:  Solving for p, Initial residual = 1.1520897e-05, Final residual = 1.1461572e-06, No Iterations 2
time step continuity errors : sum local = 3.9515593e-06, global = -4.1991389e-08, cumulative = -0.040195541
DILUPBiCGStab:  Solving for nuTilda, Initial residual = 1.0068233e-05, Final residual = 4.4808085e-09, No Iterations 3
ExecutionTime = 24.44 s  ClockTime = 24 s

Time = 2642

DILUPBiCGStab:  Solving for Ux, Initial residual = 4.142516e-06, Final residual = 7.3332403e-09, No Iterations 3
DILUPBiCGStab:  Solving for Uz, Initial residual = 7.8033587e-06, Final residual = 1.9325698e-09, No Iterations 5
GAMG:  Solving for p, Initial residual = 1.1110913e-05, Final residual = 7.7488172e-07, No Iterations 3
time step continuity errors : sum local = 2.6715246e-06, global = 1.6224251e-08, cumulative = -0.040195524
DILUPBiCGStab:  Solving for nuTilda, Initial residual = 1.0051232e-05, Final residual = 4.472311e-09, No Iterations 3
ExecutionTime = 24.45 s  ClockTime = 24 s

Time = 2643

DILUPBiCGStab:  Solving for Ux, Initial residual = 4.1290651e-06, Final residual = 7.3521194e-09, No Iterations 3
DILUPBiCGStab:  Solving for Uz, Initial residual = 7.82466e-06, Final residual = 1.8494503e-09, No Iterations 5
GAMG:  Solving for p, Initial residual = 1.0905275e-05, Final residual = 7.658294e-07, No Iterations 3
time step continuity errors : sum local = 2.6403251e-06, global = 1.4687799e-08, cumulative = -0.04019551
DILUPBiCGStab:  Solving for nuTilda, Initial residual = 1.003439e-05, Final residual = 4.4646243e-09, No Iterations 3
ExecutionTime = 24.46 s  ClockTime = 24 s

Time = 2644

DILUPBiCGStab:  Solving for Ux, Initial residual = 4.12003e-06, Final residual = 7.3253956e-09, No Iterations 3
DILUPBiCGStab:  Solving for Uz, Initial residual = 7.7853806e-06, Final residual = 1.9017815e-09, No Iterations 5
GAMG:  Solving for p, Initial residual = 1.0959143e-05, Final residual = 8.49162e-07, No Iterations 3
time step continuity errors : sum local = 2.9276215e-06, global = -2.1769862e-09, cumulative = -0.040195512
DILUPBiCGStab:  Solving for nuTilda, Initial residual = 1.0017451e-05, Final residual = 4.4565736e-09, No Iterations 3
ExecutionTime = 24.47 s  ClockTime = 24 s

Time = 2645

DILUPBiCGStab:  Solving for Ux, Initial residual = 4.1219095e-06, Final residual = 7.3256313e-09, No Iterations 3
DILUPBiCGStab:  Solving for Uz, Initial residual = 7.8185459e-06, Final residual = 1.8481378e-09, No Iterations 5
GAMG:  Solving for p, Initial residual = 1.1129525e-05, Final residual = 1.1029326e-06, No Iterations 2
time step continuity errors : sum local = 3.802602e-06, global = -6.9508479e-10, cumulative = -0.040195513
DILUPBiCGStab:  Solving for nuTilda, Initial residual = 1.0000714e-05, Final residual = 4.4488034e-09, No Iterations 3
ExecutionTime = 24.48 s  ClockTime = 24 s

Time = 2646

DILUPBiCGStab:  Solving for Ux, Initial residual = 4.1085919e-06, Final residual = 7.2818545e-09, No Iterations 3
DILUPBiCGStab:  Solving for Uz, Initial residual = 7.7568271e-06, Final residual = 1.9052156e-09, No Iterations 5
GAMG:  Solving for p, Initial residual = 1.0640111e-05, Final residual = 8.4464822e-07, No Iterations 3
time step continuity errors : sum local = 2.9121098e-06, global = -9.2218333e-09, cumulative = -0.040195522
DILUPBiCGStab:  Solving for nuTilda, Initial residual = 9.9838385e-06, Final residual = 4.4406253e-09, No Iterations 3
ExecutionTime = 24.49 s  ClockTime = 24 s

Time = 2647

DILUPBiCGStab:  Solving for Ux, Initial residual = 4.1100045e-06, Final residual = 7.2595799e-09, No Iterations 3
DILUPBiCGStab:  Solving for Uz, Initial residual = 7.7468201e-06, Final residual = 1.8214056e-09, No Iterations 5
GAMG:  Solving for p, Initial residual = 1.0501172e-05, Final residual = 7.2392013e-07, No Iterations 3
time step continuity errors : sum local = 2.4959181e-06, global = 1.6920069e-08, cumulative = -0.040195505
DILUPBiCGStab:  Solving for nuTilda, Initial residual = 9.967105e-06, Final residual = 4.4326071e-09, No Iterations 3
ExecutionTime = 24.5 s  ClockTime = 24 s

Time = 2648

DILUPBiCGStab:  Solving for Ux, Initial residual = 4.1012205e-06, Final residual = 7.2398237e-09, No Iterations 3
DILUPBiCGStab:  Solving for Uz, Initial residual = 7.6799187e-06, Final residual = 1.8803718e-09, No Iterations 5
GAMG:  Solving for p, Initial residual = 1.0458697e-05, Final residual = 6.9598923e-07, No Iterations 3
time step continuity errors : sum local = 2.3996167e-06, global = 3.4164331e-08, cumulative = -0.040195471
DILUPBiCGStab:  Solving for nuTilda, Initial residual = 9.9503004e-06, Final residual = 4.4245582e-09, No Iterations 3
ExecutionTime = 24.5 s  ClockTime = 24 s

Time = 2649

DILUPBiCGStab:  Solving for Ux, Initial residual = 4.0883145e-06, Final residual = 7.2662062e-09, No Iterations 3
DILUPBiCGStab:  Solving for Uz, Initial residual = 7.7243887e-06, Final residual = 1.8325732e-09, No Iterations 5
GAMG:  Solving for p, Initial residual = 1.0508461e-05, Final residual = 1.030595e-06, No Iterations 2
time step continuity errors : sum local = 3.5532716e-06, global = -3.7379773e-09, cumulative = -0.040195474
DILUPBiCGStab:  Solving for nuTilda, Initial residual = 9.9337269e-06, Final residual = 4.4172059e-09, No Iterations 3
ExecutionTime = 24.51 s  ClockTime = 24 s

Time = 2650

DILUPBiCGStab:  Solving for Ux, Initial residual = 4.0747856e-06, Final residual = 7.2217103e-09, No Iterations 3
DILUPBiCGStab:  Solving for Uz, Initial residual = 7.7093266e-06, Final residual = 1.8889752e-09, No Iterations 5
GAMG:  Solving for p, Initial residual = 1.0040329e-05, Final residual = 8.2633282e-07, No Iterations 3
time step continuity errors : sum local = 2.8490227e-06, global = -2.5973514e-08, cumulative = -0.0401955
DILUPBiCGStab:  Solving for nuTilda, Initial residual = 9.916915e-06, Final residual = 4.4090136e-09, No Iterations 3
ExecutionTime = 24.52 s  ClockTime = 24 s

Time = 2651

DILUPBiCGStab:  Solving for Ux, Initial residual = 4.0758829e-06, Final residual = 7.2075752e-09, No Iterations 3
DILUPBiCGStab:  Solving for Uz, Initial residual = 7.7262973e-06, Final residual = 1.8076516e-09, No Iterations 5
GAMG:  Solving for p, Initial residual = 9.9782004e-06, Final residual = 6.9356464e-07, No Iterations 3
time step continuity errors : sum local = 2.3913007e-06, global = 2.7714099e-08, cumulative = -0.040195473
DILUPBiCGStab:  Solving for nuTilda, Initial residual = 9.9002434e-06, Final residual = 4.4007671e-09, No Iterations 3
ExecutionTime = 24.53 s  ClockTime = 24 s


SIMPLE solution converged in 2651 iterations

    functionObjects::pressure pressure1 writing field: Cp
    functionObjects::turbulenceFields turbulenceFields1 writing field: turbulenceProperties:R

writeCellCentres writeCellCentres write:
    writing cell-volumes field C to 2651
    Writing the x component field of the cell-centres Cx to 2651
    Writing the y component field of the cell-centres Cy to 2651
    Writing the z component field of the cell-centres Cz to 2651
wallShearStress wallShearStress write:
    writing field wallShearStress
    min/max(walls) = (-0.30754134 -1.3304476e-18 -0.13793741), (0.068772802 1.1141708e-18 0.1325569)
    min/max(top) = (-0.00020050973 -3.5064227e-21 -0.00089412901), (7.8193985e-05 4.0658919e-21 0.0018630186)
End

Finalising parallel run
